documentation/PowerGridDataSets/protection.dss
New Line.29608897 switch=yes
New Line.30212899 switch=yes
New Line.30300192 switch=yes
New Line.29737418 switch=yes
New Line.29933621 switch=yes
New Line.27812569 switch=yes
New Line.28924792 switch=yes
New Line.28924747 switch=yes
New Line.8696606 switch=yes
New Line.30083507 switch=yes
New Line.29762316 switch=yes
New Line.29912399 switch=yes
New Line.16284542 switch=yes
New Line.29912892 switch=yes
New Line.29913921 switch=yes
New Line.29776015 switch=yes
New Line.30061489 switch=yes
New Line.16289048 switch=yes
New Line.5406116 switch=yes
New Line.17769398 switch=yes
New Line.29774921 switch=yes
New Line.16578211 switch=yes
New Line.29722061 switch=yes
New Line.30241545 switch=yes
New Line.17769060 switch=yes
New Line.17769424 switch=yes
New Line.30213913 switch=yes
New Line.17268426 switch=yes
New Line.29593250 switch=yes
New Line.29930760 switch=yes
New Line.31668640 switch=yes
New Line.31668720 switch=yes
New Line.29811450 switch=yes
New Line.13780698 switch=yes
New Line.27811493 switch=yes
New Line.31668768 switch=yes
New Line.29522903 switch=yes
New Line.29740632 switch=yes
New Line.29763854 switch=yes
New Line.29883173 switch=yes
New Line.27810969 switch=yes
New Line.27811251 switch=yes
New Line.27811953 switch=yes
New Line.8683946 switch=yes
New Line.8713622 switch=yes
New Line.30082478 switch=yes
New Line.29610574 switch=yes
New Line.29881404 switch=yes
New Line.27810841 switch=yes
New Line.29610663 switch=yes
New Line.29795755 switch=yes
New Line.29950703 switch=yes
New Line.30251043 switch=yes
New Line.29913937 switch=yes
New Line.28923397 switch=yes
New Line.29516154 switch=yes
New Line.30094562 switch=yes
New Line.18909924 switch=yes
New Line.30034441 switch=yes
New Line.29518114 switch=yes
New Line.29862062 switch=yes
New Line.29882564 switch=yes
New Line.29560615 switch=yes
New Line.29882060 switch=yes
New Line.30065185 switch=yes
New Line.8684529 switch=yes
New Line.17768974 switch=yes
New Line.29862391 switch=yes
New Line.31668544 switch=yes
New Line.29863360 switch=yes
New Line.27812561 switch=yes
New Line.30248255 switch=yes
New Line.30294990 switch=yes
New Line.30300040 switch=yes
New Line.30306335 switch=yes
New Line.29443453 switch=yes
New Line.29780604 switch=yes
New Line.29880566 switch=yes
New Line.30248383 switch=yes
New Line.29762672 switch=yes
New Line.29932096 switch=yes
New Line.16578358 switch=yes
New Line.29442704 switch=yes
New Line.27809735 switch=yes
New Line.19130066 switch=yes
New Line.27809937 switch=yes
New Line.8683902 switch=yes
New Line.30082333 switch=yes
New Line.30253504 switch=yes
New Line.27809959 switch=yes
New Line.28924888 switch=yes
New Line.16284165 switch=yes
New Line.30105520 switch=yes
New Line.30157467 switch=yes
New Line.27810037 switch=yes
New Line.29864221 switch=yes
New Line.30294435 switch=yes
New Line.28923030 switch=yes
New Line.29510747 switch=yes
New Line.29792648 switch=yes
New Line.30107878 switch=yes
New Line.31668309 switch=yes
New Line.29594084 switch=yes
New Line.29775460 switch=yes
New Line.29793171 switch=yes
New Line.28923026 switch=yes
New Line.29605141 switch=yes
New Line.29748152 switch=yes
New Line.29761349 switch=yes
New Line.29594082 switch=yes
New Line.29775090 switch=yes
New Line.16295380 switch=yes
New Line.13780401 switch=yes
New Line.29594961 switch=yes
New Line.30214634 switch=yes
New Line.8688518 switch=yes
New Line.29730599 switch=yes
New Line.30046986 switch=yes
New Line.18460102 switch=yes
New Line.29593476 switch=yes
New Line.29811728 switch=yes
New Line.16551066 switch=yes
New Line.29549153 switch=yes
New Line.18387605 switch=yes
New Line.29548614 switch=yes
New Line.29730067 switch=yes
New Line.29764305 switch=yes
New Line.30242417 switch=yes
New Line.29603122 switch=yes
New Line.29878770 switch=yes
New Line.27810993 switch=yes
New Line.29523540 switch=yes
New Line.29878890 switch=yes
New Line.29913367 switch=yes
New Line.30081181 switch=yes
New Line.30301704 switch=yes
New Line.29548707 switch=yes
New Line.29729370 switch=yes
New Line.27811807 switch=yes
New Line.29733135 switch=yes
New Line.31684455 switch=yes
New Line.29512771 switch=yes
New Line.28923850 switch=yes
New Line.30242413 switch=yes
New Line.27811219 switch=yes
New Line.27812033 switch=yes
New Line.27812106 switch=yes
New Line.15993820 switch=yes
New Line.29610679 switch=yes
New Line.29740552 switch=yes
New Line.5406401 switch=yes
New Line.19706053 switch=yes
New Line.29559976 switch=yes
New Line.29773587 switch=yes
New Line.29862060 switch=yes
New Line.29559879 switch=yes
New Line.8683839 switch=yes
New Line.17260673 switch=yes
New Line.30549565 switch=yes
New Line.19706044 switch=yes
New Line.29547174 switch=yes
New Line.29560384 switch=yes
New Line.5406415 switch=yes
New Line.17640891 switch=yes
New Line.29737377 switch=yes
New Line.31668538 switch=yes
New Line.29932571 switch=yes
New Line.29933245 switch=yes
New Line.30300042 switch=yes
New Line.27812540 switch=yes
New Line.29780559 switch=yes
New Line.29737355 switch=yes
New Line.13778977 switch=yes
New Line.29845444 switch=yes
New Line.27809861 switch=yes
New Line.29864168 switch=yes
New Line.29762612 switch=yes
New Line.29846271 switch=yes
New Line.16284555 switch=yes
New Line.29723503 switch=yes
New Line.29436066 switch=yes
New Line.29748209 switch=yes
New Line.17769270 switch=yes
New Line.18328186 switch=yes
New Line.29509628 switch=yes
New Line.29547355 switch=yes
New Line.29774925 switch=yes
New Line.29817993 switch=yes
New Line.29849424 switch=yes
New Line.29812427 switch=yes
New Line.30081090 switch=yes
New Line.18046884 switch=yes
New Line.29879688 switch=yes
New Line.30104498 switch=yes
New Line.17268428 switch=yes
New Line.18460128 switch=yes
New Line.29774680 switch=yes
New Line.29930701 switch=yes
New Line.8687533 switch=yes
New Line.19129704 switch=yes
...
Edit Line.8638910 switch=yes
New Line.16472600 switch=yes
New Line.17260598 switch=yes
New Line.5406005 switch=yes
New Line.17259055 switch=yes
New Line.17268705 switch=yes
New Line.5406268 switch=yes
New Line.16472602 switch=yes
New Line.17259051 switch=yes
New Line.17268423 switch=yes
New Line.17260602 switch=yes
New Line.5406007 switch=yes
New Line.5406111 switch=yes
New Line.28649407 switch=yes
New Line.5406043 switch=yes
New Line.16253581 switch=yes
New Line.17268421 switch=yes
New Line.16472598 switch=yes
New Line.5406100 switch=yes
New Line.16253586 switch=yes
New Line.31668297 switch=yes
New Line.17259296 switch=yes
New Line.16472262 switch=yes
New Line.13779969 switch=yes
New Line.5406003 switch=yes
New Line.5406094 switch=yes
New Line.16253588 switch=yes
New Line.17259298 switch=yes
New Line.17268703 switch=yes
New Line.16253592 switch=yes
New Line.16253590 switch=yes
New Line.5406449 switch=yes
New Line.13779965 switch=yes
New Line.17259292 switch=yes
New Line.17260596 switch=yes
New Line.5406115 switch=yes
New Line.17259294 switch=yes
New Line.13779967 switch=yes
New Line.16472592 switch=yes
New Line.17260600 switch=yes
New Line.17268425 switch=yes
New Line.5406117 switch=yes
New Line.17259053 switch=yes
New Line.31668306 switch=yes
New Line.17259057 switch=yes
New Line.5406455 switch=yes
New Line.17260592 switch=yes
New Line.5406451 switch=yes
New Line.5406039 switch=yes
New Line.5406119 switch=yes
New Line.17254749 switch=yes
New Line.17259059 switch=yes
New Line.5406270 switch=yes
New Line.5406453 switch=yes
New Line.16253583 switch=yes
New Line.17254751 switch=yes
New Line.5406098 switch=yes
New Line.5406041 switch=yes
New Line.31668302 switch=yes
New Line.5406113 switch=yes
New Line.16472264 switch=yes
New Line.17260594 switch=yes
New Line.16056294 switch=yes
New Line.16472270 switch=yes
New Line.16472594 switch=yes
New Line.5406104 switch=yes
New Line.5406457 switch=yes
New Line.28649402 switch=yes
New Line.17268701 switch=yes
New Line.17259288 switch=yes
New Line.5406102 switch=yes
New Line.16472596 switch=yes
New Line.5406096 switch=yes
New Line.16472272 switch=yes
New Line.5406109 switch=yes
New Line.16472266 switch=yes
New Line.5406447 switch=yes
New Line.13779963 switch=yes
