documentation/PowerGridDataSets/linesunder.dss
New Line.8684943 bus1=SWI288996.1.2.3 bus2=SWI406465.1.2.3 length=51.604272 units=m phases=3 phases=3 LineCode=UA750Z_UG_PRIMARY_3_2Cond NormAmps=485
New Line.27398360 bus1=SWI406465.1.2.3 bus2=JNC318939.1.2.3 length=15.141831 units=m phases=3 phases=3 LineCode=UA750Z_UG_PRIMARY_3_2Cond NormAmps=485
New Line.8684944 bus1=JNC318939.1.2.3 bus2=JNC318455.1.2.3 length=124.25319 units=m phases=3 phases=3 LineCode=UA750Z_UG_PRIMARY_3_2Cond NormAmps=485
New Line.8684845 bus1=JNC318455.1.2.3 bus2=JNC317981.1.2.3 length=171.257956 units=m phases=3 phases=3 LineCode=UA750Z_UG_PRIMARY_3_2Cond NormAmps=485
New Line.8684846 bus1=JNC317981.1.2.3 bus2=JNC314434.1.2.3 length=487.629854 units=m phases=3 phases=3 LineCode=UA750Z_UG_PRIMARY_3_2Cond NormAmps=485
New Line.8684847 bus1=JNC314434.1.2.3 bus2=JNC311033.1.2.3 length=459.285745 units=m phases=3 phases=3 LineCode=UA750Z_UG_PRIMARY_3_2Cond NormAmps=485
New Line.8684848 bus1=JNC311033.1.2.3 bus2=JNC309270.1.2.3 length=347.268391 units=m phases=3 phases=3 LineCode=UA750Z_UG_PRIMARY_3_2Cond NormAmps=485
New Line.8684849 bus1=JNC309270.1.2.3 bus2=JNC308439.1.2.3 length=169.929654 units=m phases=3 phases=3 LineCode=UA750Z_UG_PRIMARY_3_2Cond NormAmps=485
New Line.8683790 bus1=JNC308439.1.2.3 bus2=JNC306354.1.2.3 length=292.690918 units=m phases=3 phases=3 LineCode=UA750Z_UG_PRIMARY_3_2Cond NormAmps=485
New Line.8683831 bus1=JNC306354.1.2.3 bus2=JNC303220.1.2.3 length=288.606053 units=m phases=3 phases=3 LineCode=UA750Z_UG_PRIMARY_3_2Cond NormAmps=485
New Line.8683858 bus1=JNC303220.1.2.3 bus2=JNC303703.1.2.3 length=69.477637 units=m phases=3 phases=3 LineCode=UA750T_UG_PRIMARY_3_2Cond NormAmps=485
Edit Line.8683837 bus1=JNC303703.3.0 bus2=CSW85095.3.0 length=0.543725 units=m phases=1 phases=1 LineCode=UA750T_UG_PRIMARY_1_1Cond NormAmps=485
New Line.5406008 bus1=CSW85095.3.0 bus2=JNC303688.3.0 length=0.304897 units=m phases=1 phases=1 LineCode=BUSWORK_1_1Cond NormAmps=640
New Line.5406002 bus1=JNC303688.3.0 bus2=JNC303680.3.0 length=0.305087 units=m phases=1 phases=1 LineCode=BUSWORK_1_1Cond NormAmps=640
Edit Line.5406009 bus1=JNC303680.3.0 bus2=CSW181315.3.0 length=0.609347 units=m phases=1 phases=1 LineCode=BUSWORK_1_1Cond NormAmps=640
New Line.19688735 bus1=CSW181315.3.0 bus2=FLT13992.3.0 length=0.231528 units=m phases=1 phases=1 LineCode=UA750Z_UG_PRIMARY_1_1Cond NormAmps=485
New Line.8683835 bus1=FLT13992.3.0 bus2=JNC303655.3.0 length=0.306506 units=m phases=1 phases=1 LineCode=UA750Z_UG_PRIMARY_1_1Cond NormAmps=485
Edit Line.5406010 bus1=JNC303680.3.0 bus2=CSW181308.3.0 length=0.304769 units=m phases=1 phases=1 LineCode=BUSWORK_1_1Cond NormAmps=640
New Line.19688742 bus1=CSW181308.3.0 bus2=FLT13998.3.0 length=0.267704 units=m phases=1 phases=1 LineCode=UA750Z_UG_PRIMARY_1_1Cond NormAmps=485
New Line.8683836 bus1=FLT13998.3.0 bus2=JNC303682.3.0 length=0.291993 units=m phases=1 phases=1 LineCode=UA750Z_UG_PRIMARY_1_1Cond NormAmps=485
Edit Line.5406007 bus1=JNC303688.3.0 bus2=CSW85100.3.0 length=0.609538 units=m phases=1 phases=1 LineCode=BUSWORK_1_1Cond NormAmps=640
New Line.8683843 bus1=CSW85100.3.0 bus2=JNC303679.3.0 length=0.54156 units=m phases=1 phases=1 LineCode=UA1/0T_UG_PRIMARY_1_1Cond NormAmps=150
Edit Line.8683839 bus1=JNC303703.1.0 bus2=CSW85097.1.0 length=0.543715 units=m phases=1 phases=1 LineCode=UA750T_UG_PRIMARY_1_1Cond NormAmps=485
New Line.5406004 bus1=CSW85097.1.0 bus2=JNC303696.1.0 length=0.609538 units=m phases=1 phases=1 LineCode=BUSWORK_1_1Cond NormAmps=640
New Line.5406000 bus1=JNC303696.1.0 bus2=JNC303659.1.0 length=1.524099 units=m phases=1 phases=1 LineCode=BUSWORK_1_1Cond NormAmps=640
Edit Line.5406013 bus1=JNC303659.1.0 bus2=CSW181321.1.0 length=0.304579 units=m phases=1 phases=1 LineCode=BUSWORK_1_1Cond NormAmps=640
New Line.19688740 bus1=CSW181321.1.0 bus2=FLT13996.1.0 length=0.232278 units=m phases=1 phases=1 LineCode=UA750Z_UG_PRIMARY_1_1Cond NormAmps=485
New Line.8683840 bus1=FLT13996.1.0 bus2=JNC303655.1.0 length=0.305744 units=m phases=1 phases=1 LineCode=UA750Z_UG_PRIMARY_1_1Cond NormAmps=485
Edit Line.5406014 bus1=JNC303659.1.0 bus2=CSW181320.1.0 length=0.609855 units=m phases=1 phases=1 LineCode=BUSWORK_1_1Cond NormAmps=640
New Line.8683838 bus1=CSW181320.1.0 bus2=FLT12422.1.0 length=0.278051 units=m phases=1 phases=1 LineCode=UA750Z_UG_PRIMARY_1_1Cond NormAmps=485
New Line.19686358 bus1=FLT12422.1.0 bus2=JNC303682.1.0 length=0.271261 units=m phases=1 phases=1 LineCode=UA750Z_UG_PRIMARY_1_1Cond NormAmps=485
Edit Line.5406003 bus1=JNC303696.1.0 bus2=CSW85098.1.0 length=0.304579 units=m phases=1 phases=1 LineCode=BUSWORK_1_1Cond NormAmps=640
New Line.8683842 bus1=CSW85098.1.0 bus2=JNC303679.1.0 length=0.541938 units=m phases=1 phases=1 LineCode=UA1/0T_UG_PRIMARY_1_1Cond NormAmps=150
Edit Line.8683833 bus1=JNC303703.2.0 bus2=CSW85094.2.0 length=0.450263 units=m phases=1 phases=1 LineCode=UA750T_UG_PRIMARY_1_1Cond NormAmps=485
New Line.5406006 bus1=CSW85094.2.0 bus2=JNC303691.2.0 length=0.45674 units=m phases=1 phases=1 LineCode=BUSWORK_1_1Cond NormAmps=640
New Line.5406001 bus1=JNC303691.2.0 bus2=JNC303672.2.0 length=0.913926 units=m phases=1 phases=1 LineCode=BUSWORK_1_1Cond NormAmps=640
Edit Line.5406011 bus1=JNC303672.2.0 bus2=CSW181316.2.0 length=0.457376 units=m phases=1 phases=1 LineCode=BUSWORK_1_1Cond NormAmps=640
New Line.19687841 bus1=CSW181316.2.0 bus2=FLT12823.2.0 length=0.186011 units=m phases=1 phases=1 LineCode=UA750Z_UG_PRIMARY_1_1Cond NormAmps=485
New Line.8683834 bus1=FLT12823.2.0 bus2=JNC303655.2.0 length=0.257266 units=m phases=1 phases=1 LineCode=UA750Z_UG_PRIMARY_1_1Cond NormAmps=485
Edit Line.5406012 bus1=JNC303672.2.0 bus2=CSW181319.2.0 length=0.457058 units=m phases=1 phases=1 LineCode=BUSWORK_1_1Cond NormAmps=640
New Line.19688748 bus1=CSW181319.2.0 bus2=FLT14004.2.0 length=0.23133 units=m phases=1 phases=1 LineCode=UA750Z_UG_PRIMARY_1_1Cond NormAmps=485
New Line.8683832 bus1=FLT14004.2.0 bus2=JNC303682.2.0 length=0.231743 units=m phases=1 phases=1 LineCode=UA750Z_UG_PRIMARY_1_1Cond NormAmps=485
Edit Line.5406005 bus1=JNC303691.2.0 bus2=CSW85099.2.0 length=0.457504 units=m phases=1 phases=1 LineCode=BUSWORK_1_1Cond NormAmps=640
New Line.8683841 bus1=CSW85099.2.0 bus2=JNC303679.2.0 length=0.447786 units=m phases=1 phases=1 LineCode=UA1/0T_UG_PRIMARY_1_1Cond NormAmps=150
Edit Line.8683860 bus1=JNC303679.1.2.3 bus2=CSW943914.1.2.3 length=7.72517 units=m phases=3 phases=3 LineCode=UA1/0T_UG_PRIMARY_3_1Cond NormAmps=150
New Line.27810645 bus1=CSW943914.1.2.3 bus2=CAP1283.1.2.3 length=1.523971 units=m phases=3 phases=3 LineCode=UA1/0T_UG_PRIMARY_3_1Cond NormAmps=150
New Line.8683861 bus1=JNC303655.1.2.3 bus2=JNC303738.1.2.3 length=16.581354 units=m phases=3 phases=3 LineCode=UA750Z_UG_PRIMARY_3_1Cond NormAmps=485
Edit Line.8683844 bus1=JNC303738.2.0 bus2=CSW181326.2.0 length=0.44696 units=m phases=1 phases=1 LineCode=UA750Z_UG_PRIMARY_1_1Cond NormAmps=485
New Line.5406027 bus1=CSW181326.2.0 bus2=JNC303731.2.0 length=0.457376 units=m phases=1 phases=1 LineCode=BUSWORK_1_1Cond NormAmps=640
New Line.5406016 bus1=JNC303731.2.0 bus2=JNC303741.2.0 length=0.913862 units=m phases=1 phases=1 LineCode=BUSWORK_1_1Cond NormAmps=640
Edit Line.5406021 bus1=JNC303741.2.0 bus2=CSW181325.2.0 length=0.456931 units=m phases=1 phases=1 LineCode=BUSWORK_1_1Cond NormAmps=640
New Line.19688745 bus1=CSW181325.2.0 bus2=FLT14001.2.0 length=0.203761 units=m phases=1 phases=1 LineCode=UA750Z_UG_PRIMARY_1_1Cond NormAmps=485
New Line.8683845 bus1=FLT14001.2.0 bus2=JNC303745.2.0 length=0.243707 units=m phases=1 phases=1 LineCode=UA750Z_UG_PRIMARY_1_1Cond NormAmps=485
New Line.5406020 bus1=JNC303741.2.0 bus2=JNC303739.2.0 length=0.457058 units=m phases=1 phases=1 LineCode=BUSWORK_1_1Cond NormAmps=640
New Line.5406026 bus1=JNC303731.2.0 bus2=JNC303727.2.0 length=0.456613 units=m phases=1 phases=1 LineCode=BUSWORK_1_1Cond NormAmps=640
Edit Line.8683846 bus1=JNC303738.1.0 bus2=CSW181329.1.0 length=0.541317 units=m phases=1 phases=1 LineCode=UA750Z_UG_PRIMARY_1_1Cond NormAmps=485
New Line.5406029 bus1=CSW181329.1.0 bus2=JNC303724.1.0 length=0.609538 units=m phases=1 phases=1 LineCode=BUSWORK_1_1Cond NormAmps=640
New Line.5406015 bus1=JNC303724.1.0 bus2=JNC303743.1.0 length=1.52378 units=m phases=1 phases=1 LineCode=BUSWORK_1_1Cond NormAmps=640
Edit Line.5406019 bus1=JNC303743.1.0 bus2=CSW181330.1.0 length=0.609284 units=m phases=1 phases=1 LineCode=BUSWORK_1_1Cond NormAmps=640
New Line.19686361 bus1=CSW181330.1.0 bus2=FLT12425.1.0 length=0.251851 units=m phases=1 phases=1 LineCode=UA750Z_UG_PRIMARY_1_1Cond NormAmps=485
New Line.8683847 bus1=FLT12425.1.0 bus2=JNC303745.1.0 length=0.289688 units=m phases=1 phases=1 LineCode=UA750Z_UG_PRIMARY_1_1Cond NormAmps=485
New Line.5406018 bus1=JNC303743.1.0 bus2=JNC303742.1.0 length=0.303943 units=m phases=1 phases=1 LineCode=BUSWORK_1_1Cond NormAmps=640
New Line.5406028 bus1=JNC303724.1.0 bus2=JNC303723.1.0 length=0.304642 units=m phases=1 phases=1 LineCode=BUSWORK_1_1Cond NormAmps=640
Edit Line.8683849 bus1=JNC303738.3.0 bus2=CSW181324.3.0 length=0.541191 units=m phases=1 phases=1 LineCode=UA750Z_UG_PRIMARY_1_1Cond NormAmps=485
New Line.5406025 bus1=CSW181324.3.0 bus2=JNC303737.3.0 length=0.304769 units=m phases=1 phases=1 LineCode=BUSWORK_1_1Cond NormAmps=640
New Line.5406017 bus1=JNC303737.3.0 bus2=JNC303740.3.0 length=0.304642 units=m phases=1 phases=1 LineCode=BUSWORK_1_1Cond NormAmps=640
Edit Line.5406023 bus1=JNC303740.3.0 bus2=CSW181323.3.0 length=0.304959 units=m phases=1 phases=1 LineCode=BUSWORK_1_1Cond NormAmps=640
New Line.19686521 bus1=CSW181323.3.0 bus2=FLT11532.3.0 length=0.247744 units=m phases=1 phases=1 LineCode=UA750Z_UG_PRIMARY_1_1Cond NormAmps=485
New Line.8683848 bus1=FLT11532.3.0 bus2=JNC303745.3.0 length=0.293392 units=m phases=1 phases=1 LineCode=UA750Z_UG_PRIMARY_1_1Cond NormAmps=485
New Line.5406022 bus1=JNC303740.3.0 bus2=JNC303735.3.0 length=0.609093 units=m phases=1 phases=1 LineCode=BUSWORK_1_1Cond NormAmps=640
New Line.5406024 bus1=JNC303737.3.0 bus2=JNC303732.3.0 length=0.609411 units=m phases=1 phases=1 LineCode=BUSWORK_1_1Cond NormAmps=640
New Line.8683856 bus1=JNC303745.1.2.3 bus2=JNC303799.1.2.3 length=11.911824 units=m phases=3 phases=3 LineCode=UA750Z_UG_PRIMARY_3_1Cond NormAmps=485
Edit Line.8683851 bus1=JNC303799.2.0 bus2=CSW181333.2.0 length=0.455993 units=m phases=1 phases=1 LineCode=UA750Z_UG_PRIMARY_1_1Cond NormAmps=485
New Line.5406036 bus1=CSW181333.2.0 bus2=JNC303786.2.0 length=0.456819 units=m phases=1 phases=1 LineCode=BUSWORK_1_1Cond NormAmps=640
New Line.5406031 bus1=JNC303786.2.0 bus2=JNC303768.2.0 length=0.914652 units=m phases=1 phases=1 LineCode=BUSWORK_1_1Cond NormAmps=640
Edit Line.5406042 bus1=JNC303768.2.0 bus2=CSW181334.2.0 length=0.457007 units=m phases=1 phases=1 LineCode=BUSWORK_1_1Cond NormAmps=640
New Line.8683850 bus1=CSW181334.2.0 bus2=FLT12825.2.0 length=0.231503 units=m phases=1 phases=1 LineCode=UA750Z_UG_PRIMARY_1_1Cond NormAmps=485
New Line.19687843 bus1=FLT12825.2.0 bus2=JNC303777.2.0 length=0.218389 units=m phases=1 phases=1 LineCode=UA750Z_UG_PRIMARY_1_1Cond NormAmps=485
Edit Line.5406041 bus1=JNC303768.2.0 bus2=CSW83804.2.0 length=0.456951 units=m phases=1 phases=1 LineCode=BUSWORK_1_1Cond NormAmps=640
New Line.8687270 bus1=CSW83804.2.0 bus2=JNC303762.2.0 length=0.44798 units=m phases=1 phases=1 LineCode=UA1/0T_UG_PRIMARY_1_1Cond NormAmps=150
New Line.5406035 bus1=JNC303786.2.0 bus2=JNC303780.2.0 length=0.457138 units=m phases=1 phases=1 LineCode=BUSWORK_1_1Cond NormAmps=640
Edit Line.8683853 bus1=JNC303799.1.0 bus2=CSW181337.1.0 length=0.548584 units=m phases=1 phases=1 LineCode=UA750Z_UG_PRIMARY_1_1Cond NormAmps=485
New Line.5406034 bus1=CSW181337.1.0 bus2=JNC303793.1.0 length=0.609368 units=m phases=1 phases=1 LineCode=BUSWORK_1_1Cond NormAmps=640
New Line.5406030 bus1=JNC303793.1.0 bus2=JNC303763.1.0 length=1.524339 units=m phases=1 phases=1 LineCode=BUSWORK_1_1Cond NormAmps=640
Edit Line.5406044 bus1=JNC303763.1.0 bus2=CSW181336.1.0 length=0.609368 units=m phases=1 phases=1 LineCode=BUSWORK_1_1Cond NormAmps=640
New Line.8683852 bus1=CSW181336.1.0 bus2=FLT14006.1.0 length=0.283456 units=m phases=1 phases=1 LineCode=UA750Z_UG_PRIMARY_1_1Cond NormAmps=485
New Line.19688750 bus1=FLT14006.1.0 bus2=JNC303777.1.0 length=0.260681 units=m phases=1 phases=1 LineCode=UA750Z_UG_PRIMARY_1_1Cond NormAmps=485
Edit Line.5406043 bus1=JNC303763.1.0 bus2=CSW83806.1.0 length=0.304459 units=m phases=1 phases=1 LineCode=BUSWORK_1_1Cond NormAmps=640
New Line.8687490 bus1=CSW83806.1.0 bus2=JNC303762.1.0 length=0.541001 units=m phases=1 phases=1 LineCode=UA1/0T_UG_PRIMARY_1_1Cond NormAmps=150
New Line.5406033 bus1=JNC303793.1.0 bus2=JNC303787.1.0 length=0.304778 units=m phases=1 phases=1 LineCode=BUSWORK_1_1Cond NormAmps=640
Edit Line.8683855 bus1=JNC303799.3.0 bus2=CSW181331.3.0 length=0.548377 units=m phases=1 phases=1 LineCode=UA750Z_UG_PRIMARY_1_1Cond NormAmps=485
New Line.5406038 bus1=CSW181331.3.0 bus2=JNC303781.3.0 length=0.304909 units=m phases=1 phases=1 LineCode=BUSWORK_1_1Cond NormAmps=640
New Line.5406032 bus1=JNC303781.3.0 bus2=JNC303774.3.0 length=0.305097 units=m phases=1 phases=1 LineCode=BUSWORK_1_1Cond NormAmps=640
Edit Line.5406040 bus1=JNC303774.3.0 bus2=CSW181332.3.0 length=0.304966 units=m phases=1 phases=1 LineCode=BUSWORK_1_1Cond NormAmps=640
New Line.8683854 bus1=CSW181332.3.0 bus2=FLT7250.3.0 length=0.279388 units=m phases=1 phases=1 LineCode=UA750Z_UG_PRIMARY_1_1Cond NormAmps=485
New Line.19684571 bus1=FLT7250.3.0 bus2=JNC303777.3.0 length=0.264177 units=m phases=1 phases=1 LineCode=UA750Z_UG_PRIMARY_1_1Cond NormAmps=485
Edit Line.5406039 bus1=JNC303774.3.0 bus2=CSW83805.3.0 length=0.609049 units=m phases=1 phases=1 LineCode=BUSWORK_1_1Cond NormAmps=640
New Line.8687491 bus1=CSW83805.3.0 bus2=JNC303762.3.0 length=0.542362 units=m phases=1 phases=1 LineCode=UA1/0T_UG_PRIMARY_1_1Cond NormAmps=150
New Line.5406037 bus1=JNC303781.3.0 bus2=JNC303773.3.0 length=0.609049 units=m phases=1 phases=1 LineCode=BUSWORK_1_1Cond NormAmps=640
New Line.8687492 bus1=JNC303762.1.2.3 bus2=JNC303230.1.2.3 length=102.463305 units=m phases=3 phases=3 LineCode=UA1/0T_UG_PRIMARY_3_1Cond NormAmps=150
Edit Line.8687493 bus1=JNC303230.1.2.3 bus2=CSW943897.1.2.3 length=131.576873 units=m phases=3 phases=3 LineCode=UA1/0T_UG_PRIMARY_3_1Cond NormAmps=150
New Line.27810577 bus1=CSW943897.1.2.3 bus2=XFR250584.1.2.3 length=1.523988 units=m phases=3 phases=3 LineCode=UA1/0T_UG_PRIMARY_3_1Cond NormAmps=150
New Line.9960191 bus1=XFR250584_EXTNODE.1.2.3 bus2=SEP851284.1.2.3 length=3.226606 units=m phases=3 phases=3 LineCode=UA4/0A_UG_SECONDARY_3_1Cond NormAmps=260
New Line.8683859 bus1=JNC303682.1.2.3 bus2=JNC303233.1.2.3 length=70.313945 units=m phases=3 phases=3 LineCode=UA750Z_UG_PRIMARY_3_1Cond NormAmps=485
New Line.8683954 bus1=JNC303233.1.2.3 bus2=JNC300713.1.2.3 length=276.971308 units=m phases=3 phases=3 LineCode=UA750Z_UG_PRIMARY_3_1Cond NormAmps=485
Edit Line.8683946 bus1=JNC300713.2.0 bus2=CSW76097.2.0 length=0.457326 units=m phases=1 phases=1 LineCode=UA750Z_UG_PRIMARY_1_1Cond NormAmps=485
New Line.5406112 bus1=CSW76097.2.0 bus2=JNC300727.2.0 length=0.456956 units=m phases=1 phases=1 LineCode=BUSWORK_1_1Cond NormAmps=640
Edit Line.5406111 bus1=JNC300727.2.0 bus2=CSW76303.2.0 length=0.456956 units=m phases=1 phases=1 LineCode=BUSWORK_1_1Cond NormAmps=640
New Line.8685464 bus1=CSW76303.2.0 bus2=JNC300744.2.0 length=0.434739 units=m phases=1 phases=1 LineCode=UA1/0T_UG_PRIMARY_1_1Cond NormAmps=150
New Line.5406107 bus1=JNC300727.2.0 bus2=JNC300726.2.0 length=0.914652 units=m phases=1 phases=1 LineCode=BUSWORK_1_1Cond NormAmps=640
Edit Line.5406117 bus1=JNC300726.2.0 bus2=CSW76305.2.0 length=0.457327 units=m phases=1 phases=1 LineCode=BUSWORK_1_1Cond NormAmps=640
New Line.16084022 bus1=CSW76305.2.0 bus2=JNC301016.2.0 length=180.482951 units=m phases=1 phases=1 LineCode=UA1/0T_UG_PRIMARY_1_1Cond NormAmps=150
Edit Line.8688672 bus1=JNC301016.2.0 bus2=CSW943875.2.0 length=109.114806 units=m phases=1 phases=1 LineCode=UA1/0T_UG_PRIMARY_1_1Cond NormAmps=150
New Line.27810481 bus1=CSW943875.2.0 bus2=XFR163527.2.0 length=1.523963 units=m phases=1 phases=1 LineCode=UA1/0T_UG_PRIMARY_1_1Cond NormAmps=150
Edit Line.27810485 bus1=XFR163527.2.0 bus2=CSW943876.2.0 length=1.524033 units=m phases=1 phases=1 LineCode=UA1/0T_UG_PRIMARY_1_1Cond NormAmps=150
Edit Line.8688626 bus1=CSW943876.2.0 bus2=CSW943859.2.0 length=135.460074 units=m phases=1 phases=1 LineCode=UA1/0T_UG_PRIMARY_1_1Cond NormAmps=150
New Line.27810417 bus1=CSW943859.2.0 bus2=XFR163526.2.0 length=1.52398 units=m phases=1 phases=1 LineCode=UA1/0T_UG_PRIMARY_1_1Cond NormAmps=150
Edit Line.27810413 bus1=XFR163526.2.0 bus2=CSW943858.2.0 length=1.524015 units=m phases=1 phases=1 LineCode=UA1/0T_UG_PRIMARY_1_1Cond NormAmps=150
Edit Line.8688747 bus1=CSW943858.2.0 bus2=CSW943899.2.0 length=110.441215 units=m phases=1 phases=1 LineCode=UA1/0T_UG_PRIMARY_1_1Cond NormAmps=150
New Line.27810585 bus1=CSW943899.2.0 bus2=XFR163525.2.0 length=1.524009 units=m phases=1 phases=1 LineCode=UA1/0T_UG_PRIMARY_1_1Cond NormAmps=150
Edit Line.27810581 bus1=XFR163525.2.0 bus2=CSW943898.2.0 length=1.523979 units=m phases=1 phases=1 LineCode=UA1/0T_UG_PRIMARY_1_1Cond NormAmps=150
Edit Line.8688802 bus1=CSW943898.2.0 bus2=CSW943901.2.0 length=51.049275 units=m phases=1 phases=1 LineCode=UA1/0T_UG_PRIMARY_1_1Cond NormAmps=150
New Line.27810593 bus1=CSW943901.2.0 bus2=XFR163524.2.0 length=1.523959 units=m phases=1 phases=1 LineCode=UA1/0T_UG_PRIMARY_1_1Cond NormAmps=150
Edit Line.27810589 bus1=XFR163524.2.0 bus2=CSW943900.2.0 length=1.524036 units=m phases=1 phases=1 LineCode=UA1/0T_UG_PRIMARY_1_1Cond NormAmps=150
Edit Line.8688793 bus1=CSW943900.2.0 bus2=CSW943903.2.0 length=50.637589 units=m phases=1 phases=1 LineCode=UA1/0T_UG_PRIMARY_1_1Cond NormAmps=150
New Line.27810601 bus1=CSW943903.2.0 bus2=XFR163521.2.0 length=1.52403 units=m phases=1 phases=1 LineCode=UA1/0T_UG_PRIMARY_1_1Cond NormAmps=150
Edit Line.27810597 bus1=XFR163521.2.0 bus2=CSW943902.2.0 length=1.523973 units=m phases=1 phases=1 LineCode=UA1/0T_UG_PRIMARY_1_1Cond NormAmps=150
Edit Line.8688792 bus1=CSW943902.2.0 bus2=CSW943910.2.0 length=72.216857 units=m phases=1 phases=1 LineCode=UA1/0T_UG_PRIMARY_1_1Cond NormAmps=150
New Line.27810629 bus1=CSW943910.2.0 bus2=XFR163522.2.0 length=1.523968 units=m phases=1 phases=1 LineCode=UA1/0T_UG_PRIMARY_1_1Cond NormAmps=150
Edit Line.27810633 bus1=XFR163522.2.0 bus2=CSW943911.2.0 length=1.523954 units=m phases=1 phases=1 LineCode=UA1/0T_UG_PRIMARY_1_1Cond NormAmps=150
Edit Line.8688791 bus1=CSW943911.2.0 bus2=CSW943905.2.0 length=102.09292 units=m phases=1 phases=1 LineCode=UA1/0T_UG_PRIMARY_1_1Cond NormAmps=150
New Line.27810609 bus1=CSW943905.2.0 bus2=XFR163523.2.0 length=1.524044 units=m phases=1 phases=1 LineCode=UA1/0T_UG_PRIMARY_1_1Cond NormAmps=150
New Line.9967673 bus1=XFR163523_EXTNODE.2.0 bus2=JNC305612.2.0 length=9.296479 units=m phases=1 phases=1 LineCode=UA1/0A_UG_SECONDARY_1_1Cond NormAmps=150
New Line.9967674 bus1=JNC305612.2.0 bus2=JNC305613.2.0 length=0.914448 units=m phases=1 phases=1 LineCode=UA1/0A_UG_SECONDARY_1_1Cond NormAmps=150
New Line.9967667 bus1=XFR163523_EXTNODE.2.0 bus2=SEP481354.2.0 length=23.610231 units=m phases=1 phases=1 LineCode=UA1/0A_UG_SECONDARY_1_1Cond NormAmps=150
New Line.9967670 bus1=XFR163523_EXTNODE.2.0 bus2=SEP481353.2.0 length=47.000197 units=m phases=1 phases=1 LineCode=UA1/0A_UG_SECONDARY_1_1Cond NormAmps=150
New Line.9967666 bus1=XFR163523_EXTNODE.2.0 bus2=SEP867169.2.0 length=23.072339 units=m phases=1 phases=1 LineCode=UA1/0A_UG_SECONDARY_1_1Cond NormAmps=150
New Line.9967669 bus1=XFR163523_EXTNODE.2.0 bus2=SEP481352.2.0 length=63.188401 units=m phases=1 phases=1 LineCode=UA4/0B_UG_SECONDARY_1_1Cond NormAmps=260
New Line.9967665 bus1=XFR163523_EXTNODE.2.0 bus2=SEP481355.2.0 length=41.913952 units=m phases=1 phases=1 LineCode=UA1/0A_UG_SECONDARY_1_1Cond NormAmps=150
New Line.9967664 bus1=XFR163523_EXTNODE.2.0 bus2=JNC305829.2.0 length=35.051914 units=m phases=1 phases=1 LineCode=UA1/0A_UG_SECONDARY_1_1Cond NormAmps=150
New Line.9967668 bus1=JNC305829.2.0 bus2=JNC305837.2.0 length=0.914287 units=m phases=1 phases=1 LineCode=UA1/0A_UG_SECONDARY_1_1Cond NormAmps=150
New Line.9967460 bus1=XFR163522_EXTNODE.2.0 bus2=JNC304874.2.0 length=36.805733 units=m phases=1 phases=1 LineCode=UA1/0A_UG_SECONDARY_1_1Cond NormAmps=150
New Line.9967461 bus1=JNC304874.2.0 bus2=JNC304901.2.0 length=0.914333 units=m phases=1 phases=1 LineCode=UA1/0A_UG_SECONDARY_1_1Cond NormAmps=150
New Line.9967458 bus1=XFR163522_EXTNODE.2.0 bus2=SEP481349.2.0 length=57.365062 units=m phases=1 phases=1 LineCode=UA4/0B_UG_SECONDARY_1_1Cond NormAmps=260
New Line.9967539 bus1=XFR163522_EXTNODE.2.0 bus2=SEP481348.2.0 length=7.528033 units=m phases=1 phases=1 LineCode=UA1/0A_UG_SECONDARY_1_1Cond NormAmps=150
New Line.9967459 bus1=XFR163522_EXTNODE.2.0 bus2=JNC2415258.2.0 length=40.459159 units=m phases=1 phases=1 LineCode=UA1/0A_UG_SECONDARY_1_1Cond NormAmps=150
Edit Line.29548497 bus1=JNC2415258.2.0 bus2=SWI681197.2.0 length=3.048102 units=m phases=1 phases=1 LineCode=UA4/0B_UG_SECONDARY_1_1Cond NormAmps=260
Edit Line.29548499 bus1=SWI681197.2.0 bus2=SWI681198.2.0 length=1.524081 units=m phases=1 phases=1 LineCode=UA4/0B_UG_SECONDARY_1_1Cond NormAmps=260
New Line.29548493 bus1=SWI681198.2.0 bus2=SEP2223887.2.0 length=3.047919 units=m phases=1 phases=1 LineCode=UA4/0B_UG_SECONDARY_1_1Cond NormAmps=260
New Line.29548495 bus1=JNC2415258.2.0 bus2=SEP906215.2.0 length=3.047998 units=m phases=1 phases=1 LineCode=UA1/0A_UG_SECONDARY_1_1Cond NormAmps=150
New Line.9967462 bus1=XFR163522_EXTNODE.2.0 bus2=SEP481351.2.0 length=22.524444 units=m phases=1 phases=1 LineCode=UA1/0A_UG_SECONDARY_1_1Cond NormAmps=150
New Line.9967537 bus1=XFR163522_EXTNODE.2.0 bus2=SEP481350.2.0 length=22.822666 units=m phases=1 phases=1 LineCode=UA1/0A_UG_SECONDARY_1_1Cond NormAmps=150
New Line.9967538 bus1=XFR163522_EXTNODE.2.0 bus2=JNC2415252.2.0 length=7.908066 units=m phases=1 phases=1 LineCode=UA1/0A_UG_SECONDARY_1_1Cond NormAmps=150
Edit Line.29548087 bus1=JNC2415252.2.0 bus2=SWI681189.2.0 length=3.048075 units=m phases=1 phases=1 LineCode=UA4/0B_UG_SECONDARY_1_1Cond NormAmps=260
Edit Line.29548089 bus1=SWI681189.2.0 bus2=SWI681190.2.0 length=1.524073 units=m phases=1 phases=1 LineCode=UA4/0B_UG_SECONDARY_1_1Cond NormAmps=260
New Line.29548083 bus1=SWI681190.2.0 bus2=SEP2223883.2.0 length=3.047855 units=m phases=1 phases=1 LineCode=UA4/0B_UG_SECONDARY_1_1Cond NormAmps=260
New Line.29548085 bus1=JNC2415252.2.0 bus2=SEP481347.2.0 length=3.047974 units=m phases=1 phases=1 LineCode=UA1/0A_UG_SECONDARY_1_1Cond NormAmps=150
New Line.9967541 bus1=XFR163522_EXTNODE.2.0 bus2=JNC305186.2.0 length=41.740454 units=m phases=1 phases=1 LineCode=UA1/0A_UG_SECONDARY_1_1Cond NormAmps=150
New Line.9967540 bus1=JNC305186.2.0 bus2=JNC305183.2.0 length=0.914553 units=m phases=1 phases=1 LineCode=UA1/0A_UG_SECONDARY_1_1Cond NormAmps=150
New Line.9967542 bus1=JNC305186.2.0 bus2=JNC305132.2.0 length=47.833306 units=m phases=1 phases=1 LineCode=UA1/0A_UG_SECONDARY_1_1Cond NormAmps=150
New Line.9967480 bus1=JNC305132.2.0 bus2=JNC305131.2.0 length=0.914441 units=m phases=1 phases=1 LineCode=UA1/0A_UG_SECONDARY_1_1Cond NormAmps=150
New Line.9967453 bus1=XFR163521_EXTNODE.2.0 bus2=SEP481341.2.0 length=21.927806 units=m phases=1 phases=1 LineCode=UA1/0A_UG_SECONDARY_1_1Cond NormAmps=150
New Line.9967451 bus1=XFR163521_EXTNODE.2.0 bus2=JNC304242.2.0 length=31.101125 units=m phases=1 phases=1 LineCode=UA1/0A_UG_SECONDARY_1_1Cond NormAmps=150
New Line.9967452 bus1=JNC304242.2.0 bus2=JNC304226.2.0 length=0.914422 units=m phases=1 phases=1 LineCode=UA1/0A_UG_SECONDARY_1_1Cond NormAmps=150
New Line.9967454 bus1=XFR163521_EXTNODE.2.0 bus2=JNC2415256.2.0 length=6.705564 units=m phases=1 phases=1 LineCode=UA1/0A_UG_SECONDARY_1_1Cond NormAmps=150
Edit Line.29548418 bus1=JNC2415256.2.0 bus2=SWI681195.2.0 length=3.047849 units=m phases=1 phases=1 LineCode=UA4/0B_UG_SECONDARY_1_1Cond NormAmps=260
Edit Line.29548420 bus1=SWI681195.2.0 bus2=SWI681196.2.0 length=1.524149 units=m phases=1 phases=1 LineCode=UA4/0B_UG_SECONDARY_1_1Cond NormAmps=260
New Line.29548414 bus1=SWI681196.2.0 bus2=SEP2223886.2.0 length=3.047992 units=m phases=1 phases=1 LineCode=UA4/0B_UG_SECONDARY_1_1Cond NormAmps=260
New Line.29548416 bus1=JNC2415256.2.0 bus2=SEP481343.2.0 length=3.048008 units=m phases=1 phases=1 LineCode=UA1/0A_UG_SECONDARY_1_1Cond NormAmps=150
New Line.9967455 bus1=XFR163521_EXTNODE.2.0 bus2=JNC2415250.2.0 length=6.724622 units=m phases=1 phases=1 LineCode=UA1/0A_UG_SECONDARY_1_1Cond NormAmps=150
Edit Line.29548011 bus1=JNC2415250.2.0 bus2=SWI681187.2.0 length=3.048064 units=m phases=1 phases=1 LineCode=UA4/0B_UG_SECONDARY_1_1Cond NormAmps=260
Edit Line.29548013 bus1=SWI681187.2.0 bus2=SWI681188.2.0 length=1.523974 units=m phases=1 phases=1 LineCode=UA4/0B_UG_SECONDARY_1_1Cond NormAmps=260
New Line.29548007 bus1=SWI681188.2.0 bus2=SEP2223882.2.0 length=3.047771 units=m phases=1 phases=1 LineCode=UA4/0B_UG_SECONDARY_1_1Cond NormAmps=260
New Line.29548009 bus1=JNC2415250.2.0 bus2=SEP867167.2.0 length=3.047967 units=m phases=1 phases=1 LineCode=UA1/0A_UG_SECONDARY_1_1Cond NormAmps=150
New Line.9967456 bus1=XFR163521_EXTNODE.2.0 bus2=SEP481344.2.0 length=26.099171 units=m phases=1 phases=1 LineCode=UA1/0A_UG_SECONDARY_1_1Cond NormAmps=150
New Line.9967457 bus1=XFR163521_EXTNODE.2.0 bus2=SEP481346.2.0 length=24.96459 units=m phases=1 phases=1 LineCode=UA1/0A_UG_SECONDARY_1_1Cond NormAmps=150
New Line.9967448 bus1=XFR163524_EXTNODE.2.0 bus2=SEP481334.2.0 length=5.646995 units=m phases=1 phases=1 LineCode=UA1/0A_UG_SECONDARY_1_1Cond NormAmps=150
New Line.9967449 bus1=XFR163524_EXTNODE.2.0 bus2=SEP867165.2.0 length=6.302714 units=m phases=1 phases=1 LineCode=UA1/0A_UG_SECONDARY_1_1Cond NormAmps=150
New Line.9967398 bus1=XFR163524_EXTNODE.2.0 bus2=JNC2414766.2.0 length=25.764251 units=m phases=1 phases=1 LineCode=UA1/0A_UG_SECONDARY_1_1Cond NormAmps=150
Edit Line.29547651 bus1=JNC2414766.2.0 bus2=SWI681039.2.0 length=3.047923 units=m phases=1 phases=1 LineCode=UA4/0B_UG_SECONDARY_1_1Cond NormAmps=260
Edit Line.29547653 bus1=SWI681039.2.0 bus2=SWI681040.2.0 length=1.523952 units=m phases=1 phases=1 LineCode=UA4/0B_UG_SECONDARY_1_1Cond NormAmps=260
New Line.29547647 bus1=SWI681040.2.0 bus2=SEP2223880.2.0 length=3.048129 units=m phases=1 phases=1 LineCode=UA4/0B_UG_SECONDARY_1_1Cond NormAmps=260
New Line.29547649 bus1=JNC2414766.2.0 bus2=SEP481339.2.0 length=3.048015 units=m phases=1 phases=1 LineCode=UA1/0A_UG_SECONDARY_1_1Cond NormAmps=150
New Line.9967450 bus1=XFR163524_EXTNODE.2.0 bus2=SEP481340.2.0 length=24.235177 units=m phases=1 phases=1 LineCode=UA1/0A_UG_SECONDARY_1_1Cond NormAmps=150
New Line.9967396 bus1=XFR163524_EXTNODE.2.0 bus2=JNC303358.2.0 length=44.473973 units=m phases=1 phases=1 LineCode=UA1/0A_UG_SECONDARY_1_1Cond NormAmps=150
New Line.9967397 bus1=JNC303358.2.0 bus2=JNC303347.2.0 length=0.914422 units=m phases=1 phases=1 LineCode=UA1/0A_UG_SECONDARY_1_1Cond NormAmps=150
New Line.9967399 bus1=XFR163524_EXTNODE.2.0 bus2=SEP481338.2.0 length=35.579149 units=m phases=1 phases=1 LineCode=UA1/0A_UG_SECONDARY_1_1Cond NormAmps=150
New Line.9967447 bus1=XFR163524_EXTNODE.2.0 bus2=SEP481335.2.0 length=41.87677 units=m phases=1 phases=1 LineCode=UA1/0A_UG_SECONDARY_1_1Cond NormAmps=150
New Line.9967389 bus1=XFR163525_EXTNODE.2.0 bus2=SEP485212.2.0 length=37.394703 units=m phases=1 phases=1 LineCode=UA4/0B_UG_SECONDARY_1_1Cond NormAmps=260
New Line.9967395 bus1=XFR163525_EXTNODE.2.0 bus2=SEP945374.2.0 length=5.778536 units=m phases=1 phases=1 LineCode=UA1/0A_UG_SECONDARY_1_1Cond NormAmps=150
New Line.9967394 bus1=XFR163525_EXTNODE.2.0 bus2=SEP485211.2.0 length=24.582336 units=m phases=1 phases=1 LineCode=UA1/0A_UG_SECONDARY_1_1Cond NormAmps=150
New Line.9967387 bus1=XFR163525_EXTNODE.2.0 bus2=SEP481333.2.0 length=52.440503 units=m phases=1 phases=1 LineCode=UA4/0B_UG_SECONDARY_1_1Cond NormAmps=260
New Line.9967393 bus1=XFR163525_EXTNODE.2.0 bus2=JNC2414768.2.0 length=20.992482 units=m phases=1 phases=1 LineCode=UA1/0A_UG_SECONDARY_1_1Cond NormAmps=150
Edit Line.29547858 bus1=JNC2414768.2.0 bus2=SWI681185.2.0 length=3.047843 units=m phases=1 phases=1 LineCode=UA4/0B_UG_SECONDARY_1_1Cond NormAmps=260
Edit Line.29547860 bus1=SWI681185.2.0 bus2=SWI681186.2.0 length=1.524058 units=m phases=1 phases=1 LineCode=UA4/0B_UG_SECONDARY_1_1Cond NormAmps=260
New Line.29547854 bus1=SWI681186.2.0 bus2=SEP2223881.2.0 length=3.047862 units=m phases=1 phases=1 LineCode=UA4/0B_UG_SECONDARY_1_1Cond NormAmps=260
New Line.29547856 bus1=JNC2414768.2.0 bus2=SEP485207.2.0 length=3.048037 units=m phases=1 phases=1 LineCode=UA1/0A_UG_SECONDARY_1_1Cond NormAmps=150
New Line.10050654 bus1=XFR163525_EXTNODE.2.0 bus2=SEP481372.2.0 length=20.805459 units=m phases=1 phases=1 LineCode=UA1/0A_UG_SECONDARY_1_1Cond NormAmps=150
New Line.9967391 bus1=XFR163525_EXTNODE.2.0 bus2=JNC302611.2.0 length=31.554491 units=m phases=1 phases=1 LineCode=UA1/0A_UG_SECONDARY_1_1Cond NormAmps=150
New Line.9967390 bus1=JNC302611.2.0 bus2=JNC302613.2.0 length=0.91448 units=m phases=1 phases=1 LineCode=UA1/0A_UG_SECONDARY_1_1Cond NormAmps=150
New Line.9967392 bus1=JNC302611.2.0 bus2=JNC302486.2.0 length=39.143309 units=m phases=1 phases=1 LineCode=UA1/0A_UG_SECONDARY_1_1Cond NormAmps=150
New Line.9967388 bus1=JNC302486.2.0 bus2=JNC302474.2.0 length=0.914505 units=m phases=1 phases=1 LineCode=UA1/0A_UG_SECONDARY_1_1Cond NormAmps=150
New Line.9967182 bus1=XFR163526_EXTNODE.2.0 bus2=SEP485189.2.0 length=25.768734 units=m phases=1 phases=1 LineCode=UA1/0A_UG_SECONDARY_1_1Cond NormAmps=150
New Line.9967181 bus1=XFR163526_EXTNODE.2.0 bus2=SEP485190.2.0 length=24.75187 units=m phases=1 phases=1 LineCode=UA1/0A_UG_SECONDARY_1_1Cond NormAmps=150
New Line.9967322 bus1=XFR163526_EXTNODE.2.0 bus2=JNC301701.2.0 length=65.881495 units=m phases=1 phases=1 LineCode=UA1/0A_UG_SECONDARY_1_1Cond NormAmps=150
New Line.9967386 bus1=JNC301701.2.0 bus2=JNC301712.2.0 length=0.914341 units=m phases=1 phases=1 LineCode=UA1/0A_UG_SECONDARY_1_1Cond NormAmps=150
New Line.9967145 bus1=XFR163526_EXTNODE.2.0 bus2=JNC2414762.2.0 length=10.769132 units=m phases=1 phases=1 LineCode=UA1/0A_UG_SECONDARY_1_1Cond NormAmps=150
Edit Line.29547501 bus1=JNC2414762.2.0 bus2=SWI681035.2.0 length=3.048071 units=m phases=1 phases=1 LineCode=UA4/0B_UG_SECONDARY_1_1Cond NormAmps=260
Edit Line.29547503 bus1=SWI681035.2.0 bus2=SWI681036.2.0 length=1.524 units=m phases=1 phases=1 LineCode=UA4/0B_UG_SECONDARY_1_1Cond NormAmps=260
New Line.29547497 bus1=SWI681036.2.0 bus2=SEP2223878.2.0 length=3.048 units=m phases=1 phases=1 LineCode=UA4/0B_UG_SECONDARY_1_1Cond NormAmps=260
New Line.29547499 bus1=JNC2414762.2.0 bus2=SEP485188.2.0 length=3.047992 units=m phases=1 phases=1 LineCode=UA1/0A_UG_SECONDARY_1_1Cond NormAmps=150
New Line.9967144 bus1=XFR163526_EXTNODE.2.0 bus2=SEP485186.2.0 length=38.894158 units=m phases=1 phases=1 LineCode=UA4/0B_UG_SECONDARY_1_1Cond NormAmps=260
New Line.9967183 bus1=XFR163526_EXTNODE.2.0 bus2=JNC302025.2.0 length=2.085946 units=m phases=1 phases=1 LineCode=UA1/0A_UG_SECONDARY_1_1Cond NormAmps=150
New Line.9967184 bus1=JNC302025.2.0 bus2=JNC302027.2.0 length=0.914448 units=m phases=1 phases=1 LineCode=UA1/0A_UG_SECONDARY_1_1Cond NormAmps=150
New Line.9967320 bus1=XFR163526_EXTNODE.2.0 bus2=SEP485202.2.0 length=49.188489 units=m phases=1 phases=1 LineCode=UA4/0B_UG_SECONDARY_1_1Cond NormAmps=260
New Line.9967321 bus1=XFR163526_EXTNODE.2.0 bus2=SEP945373.2.0 length=52.951235 units=m phases=1 phases=1 LineCode=UA4/0B_UG_SECONDARY_1_1Cond NormAmps=260
New Line.9967139 bus1=XFR163527_EXTNODE.2.0 bus2=JNC301967.2.0 length=2.247153 units=m phases=1 phases=1 LineCode=UA1/0A_UG_SECONDARY_1_1Cond NormAmps=150
New Line.9967140 bus1=JNC301967.2.0 bus2=JNC301981.2.0 length=0.914559 units=m phases=1 phases=1 LineCode=UA1/0A_UG_SECONDARY_1_1Cond NormAmps=150
New Line.9967141 bus1=XFR163527_EXTNODE.2.0 bus2=JNC302411.2.0 length=62.517801 units=m phases=1 phases=1 LineCode=UA1/0A_UG_SECONDARY_1_1Cond NormAmps=150
New Line.9967142 bus1=JNC302411.2.0 bus2=JNC302395.2.0 length=0.914411 units=m phases=1 phases=1 LineCode=UA1/0A_UG_SECONDARY_1_1Cond NormAmps=150
New Line.9967138 bus1=XFR163527_EXTNODE.2.0 bus2=SEP484967.2.0 length=26.940423 units=m phases=1 phases=1 LineCode=UA1/0A_UG_SECONDARY_1_1Cond NormAmps=150
New Line.9967143 bus1=XFR163527_EXTNODE.2.0 bus2=SEP484973.2.0 length=46.722729 units=m phases=1 phases=1 LineCode=UA4/0B_UG_SECONDARY_1_1Cond NormAmps=260
New Line.9967135 bus1=XFR163527_EXTNODE.2.0 bus2=SEP484958.2.0 length=26.881637 units=m phases=1 phases=1 LineCode=UA1/0A_UG_SECONDARY_1_1Cond NormAmps=150
New Line.9967136 bus1=XFR163527_EXTNODE.2.0 bus2=SEP906514.2.0 length=8.955289 units=m phases=1 phases=1 LineCode=UA1/0A_UG_SECONDARY_1_1Cond NormAmps=150
New Line.9967130 bus1=XFR163527_EXTNODE.2.0 bus2=JNC301844.2.0 length=68.279911 units=m phases=1 phases=1 LineCode=UA1/0A_UG_SECONDARY_1_1Cond NormAmps=150
New Line.9967131 bus1=JNC301844.2.0 bus2=JNC301840.2.0 length=0.914709 units=m phases=1 phases=1 LineCode=UA1/0A_UG_SECONDARY_1_1Cond NormAmps=150
New Line.9967134 bus1=XFR163527_EXTNODE.2.0 bus2=JNC2414760.2.0 length=43.569038 units=m phases=1 phases=1 LineCode=UA4/0B_UG_SECONDARY_1_1Cond NormAmps=260
Edit Line.29547355 bus1=JNC2414760.2.0 bus2=SWI681033.2.0 length=3.047881 units=m phases=1 phases=1 LineCode=UA4/0B_UG_SECONDARY_1_1Cond NormAmps=260
Edit Line.29547359 bus1=SWI681033.2.0 bus2=SWI681034.2.0 length=1.523965 units=m phases=1 phases=1 LineCode=UA4/0B_UG_SECONDARY_1_1Cond NormAmps=260
New Line.29547349 bus1=SWI681034.2.0 bus2=SEP2223877.2.0 length=3.047927 units=m phases=1 phases=1 LineCode=UA4/0B_UG_SECONDARY_1_1Cond NormAmps=260
New Line.29547351 bus1=JNC2414760.2.0 bus2=SEP484957.2.0 length=3.047987 units=m phases=1 phases=1 LineCode=UA4/0B_UG_SECONDARY_1_1Cond NormAmps=260
New Line.9967137 bus1=XFR163527_EXTNODE.2.0 bus2=SEP484959.2.0 length=8.59132 units=m phases=1 phases=1 LineCode=UA1/0A_UG_SECONDARY_1_1Cond NormAmps=150
Edit Line.5406118 bus1=JNC300726.2.0 bus2=CSW76098.2.0 length=0.456956 units=m phases=1 phases=1 LineCode=BUSWORK_1_1Cond NormAmps=640
New Line.19686349 bus1=CSW76098.2.0 bus2=FLT12413.2.0 length=0.208482 units=m phases=1 phases=1 LineCode=UA750Z_UG_PRIMARY_1_1Cond NormAmps=485
New Line.8683945 bus1=FLT12413.2.0 bus2=JNC300714.2.0 length=0.244031 units=m phases=1 phases=1 LineCode=UA750Z_UG_PRIMARY_1_1Cond NormAmps=485
Edit Line.8683948 bus1=JNC300713.1.0 bus2=CSW76100.1.0 length=0.549877 units=m phases=1 phases=1 LineCode=UA750Z_UG_PRIMARY_1_1Cond NormAmps=485
New Line.5406110 bus1=CSW76100.1.0 bus2=JNC300735.1.0 length=0.609151 units=m phases=1 phases=1 LineCode=BUSWORK_1_1Cond NormAmps=640
Edit Line.5406109 bus1=JNC300735.1.0 bus2=CSW76302.1.0 length=0.304761 units=m phases=1 phases=1 LineCode=BUSWORK_1_1Cond NormAmps=640
New Line.8685466 bus1=CSW76302.1.0 bus2=JNC300744.1.0 length=0.531256 units=m phases=1 phases=1 LineCode=UA1/0T_UG_PRIMARY_1_1Cond NormAmps=150
New Line.5406106 bus1=JNC300735.1.0 bus2=JNC300734.1.0 length=1.524174 units=m phases=1 phases=1 LineCode=BUSWORK_1_1Cond NormAmps=640
Edit Line.5406119 bus1=JNC300734.1.0 bus2=CSW76075.1.0 length=0.304391 units=m phases=1 phases=1 LineCode=BUSWORK_1_1Cond NormAmps=640
Edit Line.8683955 bus1=CSW76075.1.0 bus2=CSW943890.1.0 length=16.563703 units=m phases=1 phases=1 LineCode=UA1/0T_UG_PRIMARY_1_1Cond NormAmps=150
New Line.27810547 bus1=CSW943890.1.0 bus2=XFR250581.1.0 length=1.524021 units=m phases=1 phases=1 LineCode=UA1/0T_UG_PRIMARY_1_1Cond NormAmps=150
Edit Line.27810543 bus1=XFR250581.1.0 bus2=CSW943889.1.0 length=1.524024 units=m phases=1 phases=1 LineCode=UA1/0T_UG_PRIMARY_1_1Cond NormAmps=150
New Line.8688419 bus1=CSW943889.1.0 bus2=JNC301010.1.0 length=178.11878 units=m phases=1 phases=1 LineCode=UA1/0T_UG_PRIMARY_1_1Cond NormAmps=150
Edit Line.8688521 bus1=JNC301010.1.0 bus2=CSW943878.1.0 length=82.022495 units=m phases=1 phases=1 LineCode=UA1/0T_UG_PRIMARY_1_1Cond NormAmps=150
New Line.27810495 bus1=CSW943878.1.0 bus2=XFR250587.1.0 length=1.524017 units=m phases=1 phases=1 LineCode=UA1/0T_UG_PRIMARY_1_1Cond NormAmps=150
Edit Line.27810499 bus1=XFR250587.1.0 bus2=CSW943879.1.0 length=1.524032 units=m phases=1 phases=1 LineCode=UA1/0T_UG_PRIMARY_1_1Cond NormAmps=150
Edit Line.8688522 bus1=CSW943879.1.0 bus2=CSW943881.1.0 length=48.637171 units=m phases=1 phases=1 LineCode=UA1/0T_UG_PRIMARY_1_1Cond NormAmps=150
New Line.27810507 bus1=CSW943881.1.0 bus2=XFR250586.1.0 length=1.523993 units=m phases=1 phases=1 LineCode=UA1/0T_UG_PRIMARY_1_1Cond NormAmps=150
Edit Line.27810503 bus1=XFR250586.1.0 bus2=CSW943880.1.0 length=1.524013 units=m phases=1 phases=1 LineCode=UA1/0T_UG_PRIMARY_1_1Cond NormAmps=150
Edit Line.8688520 bus1=CSW943880.1.0 bus2=CSW943892.1.0 length=35.215691 units=m phases=1 phases=1 LineCode=UA1/0T_UG_PRIMARY_1_1Cond NormAmps=150
New Line.27810557 bus1=CSW943892.1.0 bus2=XFR250585.1.0 length=1.524018 units=m phases=1 phases=1 LineCode=UA1/0T_UG_PRIMARY_1_1Cond NormAmps=150
Edit Line.27810553 bus1=XFR250585.1.0 bus2=CSW943891.1.0 length=1.523969 units=m phases=1 phases=1 LineCode=UA1/0T_UG_PRIMARY_1_1Cond NormAmps=150
Edit Line.8688519 bus1=CSW943891.1.0 bus2=CSW943894.1.0 length=49.482949 units=m phases=1 phases=1 LineCode=UA1/0T_UG_PRIMARY_1_1Cond NormAmps=150
New Line.27810565 bus1=CSW943894.1.0 bus2=XFR163533.1.0 length=1.524 units=m phases=1 phases=1 LineCode=UA1/0T_UG_PRIMARY_1_1Cond NormAmps=150
Edit Line.27810561 bus1=XFR163533.1.0 bus2=CSW943893.1.0 length=1.523994 units=m phases=1 phases=1 LineCode=UA1/0T_UG_PRIMARY_1_1Cond NormAmps=150
Edit Line.8688518 bus1=CSW943893.1.0 bus2=CSW943912.1.0 length=53.996569 units=m phases=1 phases=1 LineCode=UA1/0T_UG_PRIMARY_1_1Cond NormAmps=150
New Line.27810637 bus1=CSW943912.1.0 bus2=XFR163531.1.0 length=1.52397 units=m phases=1 phases=1 LineCode=UA1/0T_UG_PRIMARY_1_1Cond NormAmps=150
Edit Line.27810641 bus1=XFR163531.1.0 bus2=CSW943913.1.0 length=1.523998 units=m phases=1 phases=1 LineCode=UA1/0T_UG_PRIMARY_1_1Cond NormAmps=150
Edit Line.8688517 bus1=CSW943913.1.0 bus2=CSW943908.1.0 length=125.32248 units=m phases=1 phases=1 LineCode=UA1/0T_UG_PRIMARY_1_1Cond NormAmps=150
New Line.27810621 bus1=CSW943908.1.0 bus2=XFR163530.1.0 length=1.523998 units=m phases=1 phases=1 LineCode=UA1/0T_UG_PRIMARY_1_1Cond NormAmps=150
Edit Line.27810625 bus1=XFR163530.1.0 bus2=CSW943909.1.0 length=1.524022 units=m phases=1 phases=1 LineCode=UA1/0T_UG_PRIMARY_1_1Cond NormAmps=150
Edit Line.8688469 bus1=CSW943909.1.0 bus2=CSW943906.1.0 length=50.350478 units=m phases=1 phases=1 LineCode=UA1/0T_UG_PRIMARY_1_1Cond NormAmps=150
New Line.27810613 bus1=CSW943906.1.0 bus2=XFR163529.1.0 length=1.52399 units=m phases=1 phases=1 LineCode=UA1/0T_UG_PRIMARY_1_1Cond NormAmps=150
Edit Line.27810617 bus1=XFR163529.1.0 bus2=CSW943907.1.0 length=1.523996 units=m phases=1 phases=1 LineCode=UA1/0T_UG_PRIMARY_1_1Cond NormAmps=150
Edit Line.8688468 bus1=CSW943907.1.0 bus2=CSW943877.1.0 length=46.584763 units=m phases=1 phases=1 LineCode=UA1/0T_UG_PRIMARY_1_1Cond NormAmps=150
New Line.27810491 bus1=CSW943877.1.0 bus2=XFR163528.1.0 length=1.524041 units=m phases=1 phases=1 LineCode=UA1/0T_UG_PRIMARY_1_1Cond NormAmps=150
New Line.9967128 bus1=XFR163528_EXTNODE.1.0 bus2=JNC2414764.1.0 length=6.516186 units=m phases=1 phases=1 LineCode=UA1/0A_UG_SECONDARY_1_1Cond NormAmps=150
Edit Line.29547605 bus1=JNC2414764.1.0 bus2=SWI681037.1.0 length=3.048015 units=m phases=1 phases=1 LineCode=UA4/0B_UG_SECONDARY_1_1Cond NormAmps=260
Edit Line.29547607 bus1=SWI681037.1.0 bus2=SWI681038.1.0 length=1.524109 units=m phases=1 phases=1 LineCode=UA4/0B_UG_SECONDARY_1_1Cond NormAmps=260
New Line.29547601 bus1=SWI681038.1.0 bus2=SEP2223879.1.0 length=3.04787 units=m phases=1 phases=1 LineCode=UA4/0B_UG_SECONDARY_1_1Cond NormAmps=260
New Line.29547603 bus1=JNC2414764.1.0 bus2=SEP698067.1.0 length=3.048014 units=m phases=1 phases=1 LineCode=UA1/0A_UG_SECONDARY_1_1Cond NormAmps=150
New Line.9967129 bus1=XFR163528_EXTNODE.1.0 bus2=SEP698043.1.0 length=6.343828 units=m phases=1 phases=1 LineCode=UA1/0A_UG_SECONDARY_1_1Cond NormAmps=150
New Line.9967126 bus1=XFR163528_EXTNODE.1.0 bus2=SEP698033.1.0 length=24.09 units=m phases=1 phases=1 LineCode=UA1/0A_UG_SECONDARY_1_1Cond NormAmps=150
New Line.9967127 bus1=XFR163528_EXTNODE.1.0 bus2=SEP961678.1.0 length=21.761366 units=m phases=1 phases=1 LineCode=UA1/0A_UG_SECONDARY_1_1Cond NormAmps=150
New Line.9967125 bus1=XFR163528_EXTNODE.1.0 bus2=SEP698044.1.0 length=26.291191 units=m phases=1 phases=1 LineCode=UA1/0A_UG_SECONDARY_1_1Cond NormAmps=150
New Line.9967123 bus1=XFR163528_EXTNODE.1.0 bus2=JNC302259.1.0 length=16.7127 units=m phases=1 phases=1 LineCode=UA1/0A_UG_SECONDARY_1_1Cond NormAmps=150
New Line.9967124 bus1=JNC302259.1.0 bus2=JNC302248.1.0 length=0.914501 units=m phases=1 phases=1 LineCode=UA1/0A_UG_SECONDARY_1_1Cond NormAmps=150
New Line.9967119 bus1=XFR163529_EXTNODE.1.0 bus2=JNC2414758.1.0 length=6.383394 units=m phases=1 phases=1 LineCode=UA1/0A_UG_SECONDARY_1_1Cond NormAmps=150
New Line.29547164 bus1=JNC2414758.1.0 bus2=SEP720620.1.0 length=3.047902 units=m phases=1 phases=1 LineCode=UA1/0A_UG_SECONDARY_1_1Cond NormAmps=150
Edit Line.29547174 bus1=JNC2414758.1.0 bus2=SWI681031.1.0 length=3.04795 units=m phases=1 phases=1 LineCode=UA4/0B_UG_SECONDARY_1_1Cond NormAmps=260
Edit Line.29547176 bus1=SWI681031.1.0 bus2=SWI681032.1.0 length=1.52415 units=m phases=1 phases=1 LineCode=UA4/0B_UG_SECONDARY_1_1Cond NormAmps=260
New Line.29547172 bus1=SWI681032.1.0 bus2=SEP2223876.1.0 length=3.047727 units=m phases=1 phases=1 LineCode=UA4/0B_UG_SECONDARY_1_1Cond NormAmps=260
New Line.9967122 bus1=XFR163529_EXTNODE.1.0 bus2=SEP698035.1.0 length=42.297597 units=m phases=1 phases=1 LineCode=UA1/0A_UG_SECONDARY_1_1Cond NormAmps=150
New Line.9967117 bus1=XFR163529_EXTNODE.1.0 bus2=SEP698068.1.0 length=21.891748 units=m phases=1 phases=1 LineCode=UA1/0A_UG_SECONDARY_1_1Cond NormAmps=150
New Line.9967120 bus1=XFR163529_EXTNODE.1.0 bus2=SEP961769.1.0 length=6.021707 units=m phases=1 phases=1 LineCode=UA1/0A_UG_SECONDARY_1_1Cond NormAmps=150
New Line.9967118 bus1=XFR163529_EXTNODE.1.0 bus2=SEP698060.1.0 length=23.717619 units=m phases=1 phases=1 LineCode=UA1/0A_UG_SECONDARY_1_1Cond NormAmps=150
New Line.9967121 bus1=XFR163529_EXTNODE.1.0 bus2=SEP922871.1.0 length=24.883497 units=m phases=1 phases=1 LineCode=UA1/0A_UG_SECONDARY_1_1Cond NormAmps=150
New Line.9967115 bus1=XFR163529_EXTNODE.1.0 bus2=JNC302722.1.0 length=18.614988 units=m phases=1 phases=1 LineCode=UA1/0A_UG_SECONDARY_1_1Cond NormAmps=150
New Line.9967116 bus1=JNC302722.1.0 bus2=JNC302706.1.0 length=0.914497 units=m phases=1 phases=1 LineCode=UA1/0A_UG_SECONDARY_1_1Cond NormAmps=150
New Line.9967096 bus1=XFR163530_EXTNODE.1.0 bus2=JNC2414754.1.0 length=42.672281 units=m phases=1 phases=1 LineCode=UA1/0A_UG_SECONDARY_1_1Cond NormAmps=150
Edit Line.29546274 bus1=JNC2414754.1.0 bus2=SWI681025.1.0 length=3.04802 units=m phases=1 phases=1 LineCode=UA4/0B_UG_SECONDARY_1_1Cond NormAmps=260
Edit Line.29546276 bus1=SWI681025.1.0 bus2=SWI681026.1.0 length=1.524001 units=m phases=1 phases=1 LineCode=UA4/0B_UG_SECONDARY_1_1Cond NormAmps=260
New Line.29546270 bus1=SWI681026.1.0 bus2=SEP2223873.1.0 length=3.048132 units=m phases=1 phases=1 LineCode=UA4/0B_UG_SECONDARY_1_1Cond NormAmps=260
New Line.29546272 bus1=JNC2414754.1.0 bus2=SEP698062.1.0 length=3.048 units=m phases=1 phases=1 LineCode=UA1/0A_UG_SECONDARY_1_1Cond NormAmps=150
New Line.9967097 bus1=XFR163530_EXTNODE.1.0 bus2=SEP698070.1.0 length=23.346693 units=m phases=1 phases=1 LineCode=UA1/0A_UG_SECONDARY_1_1Cond NormAmps=150
New Line.9967098 bus1=XFR163530_EXTNODE.1.0 bus2=SEP720622.1.0 length=8.503027 units=m phases=1 phases=1 LineCode=UA1/0A_UG_SECONDARY_1_1Cond NormAmps=150
New Line.10051224 bus1=XFR163530_EXTNODE.1.0 bus2=SEP525482.1.0 length=34.062729 units=m phases=1 phases=1 LineCode=UA1/0A_UG_SECONDARY_1_1Cond NormAmps=150
New Line.9967087 bus1=XFR163530_EXTNODE.1.0 bus2=JNC304043.1.0 length=36.905836 units=m phases=1 phases=1 LineCode=UA1/0A_UG_SECONDARY_1_1Cond NormAmps=150
New Line.9967088 bus1=JNC304043.1.0 bus2=JNC304136.1.0 length=36.534286 units=m phases=1 phases=1 LineCode=UA1/0A_UG_SECONDARY_1_1Cond NormAmps=150
New Line.9967094 bus1=JNC304136.1.0 bus2=JNC304121.1.0 length=0.914365 units=m phases=1 phases=1 LineCode=UA1/0A_UG_SECONDARY_1_1Cond NormAmps=150
New Line.9967093 bus1=JNC304043.1.0 bus2=JNC304034.1.0 length=0.914584 units=m phases=1 phases=1 LineCode=UA1/0A_UG_SECONDARY_1_1Cond NormAmps=150
New Line.9967095 bus1=XFR163530_EXTNODE.1.0 bus2=SEP698058.1.0 length=24.52776 units=m phases=1 phases=1 LineCode=UA1/0A_UG_SECONDARY_1_1Cond NormAmps=150
New Line.9967100 bus1=XFR163530_EXTNODE.1.0 bus2=JNC303324.1.0 length=19.117759 units=m phases=1 phases=1 LineCode=UA1/0A_UG_SECONDARY_1_1Cond NormAmps=150
New Line.9967101 bus1=JNC303324.1.0 bus2=JNC303311.1.0 length=0.914422 units=m phases=1 phases=1 LineCode=UA1/0A_UG_SECONDARY_1_1Cond NormAmps=150
New Line.9967099 bus1=XFR163530_EXTNODE.1.0 bus2=SEP698046.1.0 length=8.51386 units=m phases=1 phases=1 LineCode=UA1/0A_UG_SECONDARY_1_1Cond NormAmps=150
New Line.9967032 bus1=XFR163531_EXTNODE.1.0 bus2=JNC2409358.1.0 length=66.230165 units=m phases=1 phases=1 LineCode=UA4/0B_UG_SECONDARY_1_1Cond NormAmps=260
Edit Line.29528251 bus1=JNC2409358.1.0 bus2=SWI678965.1.0 length=3.048082 units=m phases=1 phases=1 LineCode=UA4/0B_UG_SECONDARY_1_1Cond NormAmps=260
Edit Line.29528253 bus1=SWI678965.1.0 bus2=SWI678966.1.0 length=1.523996 units=m phases=1 phases=1 LineCode=UA4/0B_UG_SECONDARY_1_1Cond NormAmps=260
New Line.29528247 bus1=SWI678966.1.0 bus2=SEP2220947.1.0 length=3.047878 units=m phases=1 phases=1 LineCode=UA4/0B_UG_SECONDARY_1_1Cond NormAmps=260
New Line.29528249 bus1=JNC2409358.1.0 bus2=SEP922786.1.0 length=3.047998 units=m phases=1 phases=1 LineCode=UA4/0B_UG_SECONDARY_1_1Cond NormAmps=260
New Line.9967033 bus1=XFR163531_EXTNODE.1.0 bus2=SEP884010.1.0 length=55.437761 units=m phases=1 phases=1 LineCode=UA4/0B_UG_SECONDARY_1_1Cond NormAmps=260
New Line.9967035 bus1=XFR163531_EXTNODE.1.0 bus2=JNC303338.1.0 length=33.771291 units=m phases=1 phases=1 LineCode=UA1/0A_UG_SECONDARY_1_1Cond NormAmps=150
New Line.9967036 bus1=JNC303338.1.0 bus2=JNC303354.1.0 length=0.91448 units=m phases=1 phases=1 LineCode=UA1/0A_UG_SECONDARY_1_1Cond NormAmps=150
New Line.9967086 bus1=XFR163531_EXTNODE.1.0 bus2=SEP698064.1.0 length=7.976783 units=m phases=1 phases=1 LineCode=UA1/0A_UG_SECONDARY_1_1Cond NormAmps=150
New Line.9967114 bus1=XFR163531_EXTNODE.1.0 bus2=SEP698069.1.0 length=42.034894 units=m phases=1 phases=1 LineCode=UA1/0A_UG_SECONDARY_1_1Cond NormAmps=150
New Line.9967085 bus1=XFR163531_EXTNODE.1.0 bus2=JNC2409356.1.0 length=30.44407 units=m phases=1 phases=1 LineCode=UA1/0A_UG_SECONDARY_1_1Cond NormAmps=150
Edit Line.29528135 bus1=JNC2409356.1.0 bus2=SWI678963.1.0 length=3.047843 units=m phases=1 phases=1 LineCode=UA4/0B_UG_SECONDARY_1_1Cond NormAmps=260
Edit Line.29528137 bus1=SWI678963.1.0 bus2=SWI678964.1.0 length=1.524059 units=m phases=1 phases=1 LineCode=UA4/0B_UG_SECONDARY_1_1Cond NormAmps=260
New Line.29528131 bus1=SWI678964.1.0 bus2=SEP2220946.1.0 length=3.047744 units=m phases=1 phases=1 LineCode=UA4/0B_UG_SECONDARY_1_1Cond NormAmps=260
New Line.29528133 bus1=JNC2409356.1.0 bus2=SEP720621.1.0 length=3.047989 units=m phases=1 phases=1 LineCode=UA1/0A_UG_SECONDARY_1_1Cond NormAmps=150
New Line.9967034 bus1=XFR163531_EXTNODE.1.0 bus2=JNC2414757.1.0 length=25.30544 units=m phases=1 phases=1 LineCode=UA1/0A_UG_SECONDARY_1_1Cond NormAmps=150
Edit Line.29546574 bus1=JNC2414757.1.0 bus2=SWI681029.1.0 length=3.047852 units=m phases=1 phases=1 LineCode=UA4/0B_UG_SECONDARY_1_1Cond NormAmps=260
Edit Line.29546576 bus1=SWI681029.1.0 bus2=SWI681030.1.0 length=1.523991 units=m phases=1 phases=1 LineCode=UA4/0B_UG_SECONDARY_1_1Cond NormAmps=260
New Line.29546570 bus1=SWI681030.1.0 bus2=SEP2223875.1.0 length=3.048112 units=m phases=1 phases=1 LineCode=UA4/0B_UG_SECONDARY_1_1Cond NormAmps=260
New Line.29546572 bus1=JNC2414757.1.0 bus2=SEP698032.1.0 length=3.048029 units=m phases=1 phases=1 LineCode=UA1/0A_UG_SECONDARY_1_1Cond NormAmps=150
New Line.9967079 bus1=XFR163533_EXTNODE.1.0 bus2=SEP698038.1.0 length=21.940257 units=m phases=1 phases=1 LineCode=UA1/0A_UG_SECONDARY_1_1Cond NormAmps=150
New Line.9967080 bus1=XFR163533_EXTNODE.1.0 bus2=SEP698066.1.0 length=6.530971 units=m phases=1 phases=1 LineCode=UA1/0A_UG_SECONDARY_1_1Cond NormAmps=150
New Line.9967081 bus1=XFR163533_EXTNODE.1.0 bus2=SEP720614.1.0 length=6.452754 units=m phases=1 phases=1 LineCode=UA1/0A_UG_SECONDARY_1_1Cond NormAmps=150
New Line.9967083 bus1=XFR163533_EXTNODE.1.0 bus2=JNC302822.1.0 length=25.636531 units=m phases=1 phases=1 LineCode=UA1/0A_UG_SECONDARY_1_1Cond NormAmps=150
New Line.9967084 bus1=JNC302822.1.0 bus2=JNC302845.1.0 length=0.914413 units=m phases=1 phases=1 LineCode=UA1/0A_UG_SECONDARY_1_1Cond NormAmps=150
New Line.9967082 bus1=XFR163533_EXTNODE.1.0 bus2=SEP696882.1.0 length=26.504725 units=m phases=1 phases=1 LineCode=UA1/0A_UG_SECONDARY_1_1Cond NormAmps=150
New Line.9966824 bus1=XFR163533_EXTNODE.1.0 bus2=SEP698071.1.0 length=23.709344 units=m phases=1 phases=1 LineCode=UA1/0A_UG_SECONDARY_1_1Cond NormAmps=150
New Line.9967677 bus1=XFR163533_EXTNODE.1.0 bus2=JNC302377.1.0 length=34.091803 units=m phases=1 phases=1 LineCode=UA1/0A_UG_SECONDARY_1_1Cond NormAmps=150
New Line.9967678 bus1=JNC302377.1.0 bus2=JNC302367.1.0 length=0.914623 units=m phases=1 phases=1 LineCode=UA1/0A_UG_SECONDARY_1_1Cond NormAmps=150
New Line.9966045 bus1=XFR250585_EXTNODE.1.0 bus2=SEP851286.1.0 length=24.942971 units=m phases=1 phases=1 LineCode=UA1/0A_UG_SECONDARY_1_1Cond NormAmps=150
New Line.9966046 bus1=XFR250585_EXTNODE.1.0 bus2=SEP851285.1.0 length=25.689449 units=m phases=1 phases=1 LineCode=UA1/0A_UG_SECONDARY_1_1Cond NormAmps=150
New Line.9966048 bus1=XFR250585_EXTNODE.1.0 bus2=SEP851288.1.0 length=60.605095 units=m phases=1 phases=1 LineCode=UA4/0B_UG_SECONDARY_1_1Cond NormAmps=260
New Line.9966044 bus1=XFR250585_EXTNODE.1.0 bus2=SEP973786.1.0 length=5.954661 units=m phases=1 phases=1 LineCode=UA1/0A_UG_SECONDARY_1_1Cond NormAmps=150
New Line.9966241 bus1=XFR250585_EXTNODE.1.0 bus2=JNC302008.1.0 length=30.763859 units=m phases=1 phases=1 LineCode=UA1/0A_UG_SECONDARY_1_1Cond NormAmps=150
New Line.9967031 bus1=JNC302008.1.0 bus2=JNC301999.1.0 length=0.914549 units=m phases=1 phases=1 LineCode=UA1/0A_UG_SECONDARY_1_1Cond NormAmps=150
New Line.9966047 bus1=XFR250585_EXTNODE.1.0 bus2=JNC2409354.1.0 length=45.512753 units=m phases=1 phases=1 LineCode=UA4/0B_UG_SECONDARY_1_1Cond NormAmps=260
Edit Line.29528091 bus1=JNC2409354.1.0 bus2=SWI678961.1.0 length=3.047976 units=m phases=1 phases=1 LineCode=UA4/0B_UG_SECONDARY_1_1Cond NormAmps=260
Edit Line.29528093 bus1=SWI678961.1.0 bus2=SWI678962.1.0 length=1.523924 units=m phases=1 phases=1 LineCode=UA4/0B_UG_SECONDARY_1_1Cond NormAmps=260
New Line.29528087 bus1=SWI678962.1.0 bus2=SEP2220945.1.0 length=3.047901 units=m phases=1 phases=1 LineCode=UA4/0B_UG_SECONDARY_1_1Cond NormAmps=260
New Line.29528089 bus1=JNC2409354.1.0 bus2=SEP851287.1.0 length=3.048043 units=m phases=1 phases=1 LineCode=UA4/0B_UG_SECONDARY_1_1Cond NormAmps=260
New Line.9965658 bus1=XFR250586_EXTNODE.1.0 bus2=JNC301619.1.0 length=15.089948 units=m phases=1 phases=1 LineCode=UA1/0A_UG_SECONDARY_1_1Cond NormAmps=150
New Line.9965659 bus1=JNC301619.1.0 bus2=JNC301615.1.0 length=0.914445 units=m phases=1 phases=1 LineCode=UA1/0A_UG_SECONDARY_1_1Cond NormAmps=150
New Line.9966529 bus1=XFR250586_EXTNODE.1.0 bus2=SEP851291.1.0 length=6.006835 units=m phases=1 phases=1 LineCode=UA1/0A_UG_SECONDARY_1_1Cond NormAmps=150
New Line.9966528 bus1=XFR250586_EXTNODE.1.0 bus2=JNC2409351.1.0 length=19.009374 units=m phases=1 phases=1 LineCode=UA1/0A_UG_SECONDARY_1_1Cond NormAmps=150
Edit Line.29523789 bus1=JNC2409351.1.0 bus2=SWI678893.1.0 length=3.047985 units=m phases=1 phases=1 LineCode=UA4/0B_UG_SECONDARY_1_1Cond NormAmps=260
Edit Line.29523791 bus1=SWI678893.1.0 bus2=SWI678894.1.0 length=1.524049 units=m phases=1 phases=1 LineCode=UA4/0B_UG_SECONDARY_1_1Cond NormAmps=260
New Line.29523785 bus1=SWI678894.1.0 bus2=SEP2220751.1.0 length=3.048032 units=m phases=1 phases=1 LineCode=UA4/0B_UG_SECONDARY_1_1Cond NormAmps=260
New Line.29523787 bus1=JNC2409351.1.0 bus2=SEP851290.1.0 length=3.048005 units=m phases=1 phases=1 LineCode=UA1/0A_UG_SECONDARY_1_1Cond NormAmps=150
New Line.9966554 bus1=XFR250586_EXTNODE.1.0 bus2=SEP851289.1.0 length=22.932133 units=m phases=1 phases=1 LineCode=UA1/0A_UG_SECONDARY_1_1Cond NormAmps=150
New Line.10051222 bus1=XFR250586_EXTNODE.1.0 bus2=SEP851295.1.0 length=24.81687 units=m phases=1 phases=1 LineCode=UA1/0A_UG_SECONDARY_1_1Cond NormAmps=150
New Line.9965652 bus1=XFR250587_EXTNODE.1.0 bus2=JNC301470.1.0 length=47.114278 units=m phases=1 phases=1 LineCode=UA1/0A_UG_SECONDARY_1_1Cond NormAmps=150
New Line.9965654 bus1=JNC301470.1.0 bus2=JNC301475.1.0 length=0.914585 units=m phases=1 phases=1 LineCode=UA1/0A_UG_SECONDARY_1_1Cond NormAmps=150
New Line.9965653 bus1=JNC301470.1.0 bus2=JNC301017.1.0 length=49.232931 units=m phases=1 phases=1 LineCode=UA1/0A_UG_SECONDARY_1_1Cond NormAmps=150
New Line.9965655 bus1=JNC301017.1.0 bus2=JNC300996.1.0 length=0.914517 units=m phases=1 phases=1 LineCode=UA1/0A_UG_SECONDARY_1_1Cond NormAmps=150
New Line.9966532 bus1=XFR250587_EXTNODE.1.0 bus2=SEP698050.1.0 length=22.278853 units=m phases=1 phases=1 LineCode=UA1/0A_UG_SECONDARY_1_1Cond NormAmps=150
New Line.10051223 bus1=XFR250587_EXTNODE.1.0 bus2=SEP851296.1.0 length=26.304972 units=m phases=1 phases=1 LineCode=UA1/0A_UG_SECONDARY_1_1Cond NormAmps=150
New Line.9966530 bus1=XFR250587_EXTNODE.1.0 bus2=JNC2409349.1.0 length=36.236048 units=m phases=1 phases=1 LineCode=UA1/0A_UG_SECONDARY_1_1Cond NormAmps=150
Edit Line.29523717 bus1=JNC2409349.1.0 bus2=SWI678891.1.0 length=3.047996 units=m phases=1 phases=1 LineCode=UA4/0B_UG_SECONDARY_1_1Cond NormAmps=260
Edit Line.29523719 bus1=SWI678891.1.0 bus2=SWI678892.1.0 length=1.523952 units=m phases=1 phases=1 LineCode=UA4/0B_UG_SECONDARY_1_1Cond NormAmps=260
New Line.29523713 bus1=SWI678892.1.0 bus2=SEP2220750.1.0 length=3.047982 units=m phases=1 phases=1 LineCode=UA4/0B_UG_SECONDARY_1_1Cond NormAmps=260
New Line.29523715 bus1=JNC2409349.1.0 bus2=SEP851292.1.0 length=3.047999 units=m phases=1 phases=1 LineCode=UA1/0A_UG_SECONDARY_1_1Cond NormAmps=150
New Line.9965656 bus1=XFR250587_EXTNODE.1.0 bus2=JNC301659.1.0 length=1.955007 units=m phases=1 phases=1 LineCode=UA1/0A_UG_SECONDARY_1_1Cond NormAmps=150
New Line.9965657 bus1=JNC301659.1.0 bus2=JNC301639.1.0 length=0.914258 units=m phases=1 phases=1 LineCode=UA1/0A_UG_SECONDARY_1_1Cond NormAmps=150
New Line.9966531 bus1=XFR250587_EXTNODE.1.0 bus2=JNC2409352.1.0 length=21.37976 units=m phases=1 phases=1 LineCode=UA1/0A_UG_SECONDARY_1_1Cond NormAmps=150
New Line.29523859 bus1=JNC2409352.1.0 bus2=SEP698031.1.0 length=3.047945 units=m phases=1 phases=1 LineCode=UA1/0A_UG_SECONDARY_1_1Cond NormAmps=150
Edit Line.29523869 bus1=JNC2409352.1.0 bus2=SWI678895.1.0 length=3.048073 units=m phases=1 phases=1 LineCode=UA4/0B_UG_SECONDARY_1_1Cond NormAmps=260
Edit Line.29523871 bus1=SWI678895.1.0 bus2=SWI678896.1.0 length=1.524157 units=m phases=1 phases=1 LineCode=UA4/0B_UG_SECONDARY_1_1Cond NormAmps=260
New Line.29523867 bus1=SWI678896.1.0 bus2=SEP2220752.1.0 length=3.04788 units=m phases=1 phases=1 LineCode=UA4/0B_UG_SECONDARY_1_1Cond NormAmps=260
New Line.10050647 bus1=XFR250587_EXTNODE.1.0 bus2=SEP934662.1.0 length=6.062189 units=m phases=1 phases=1 LineCode=UA1/0A_UG_SECONDARY_1_1Cond NormAmps=150
New Line.10049437 bus1=XFR250581_EXTNODE.1.0 bus2=SEP851294.1.0 length=9.495578 units=m phases=1 phases=1 LineCode=UA1/0A_UG_SECONDARY_1_1Cond NormAmps=150
New Line.10049289 bus1=XFR250581_EXTNODE.1.0 bus2=SEP851293.1.0 length=7.632354 units=m phases=1 phases=1 LineCode=UA1/0A_UG_SECONDARY_1_1Cond NormAmps=150
New Line.9948433 bus1=XFR250581_EXTNODE.1.0 bus2=JNC300596.1.0 length=12.832198 units=m phases=1 phases=1 LineCode=UA1/0A_UG_SECONDARY_1_1Cond NormAmps=150
New Line.9948435 bus1=JNC300596.1.0 bus2=JNC300910.1.0 length=71.247755 units=m phases=1 phases=1 LineCode=UA1/0A_UG_SECONDARY_1_1Cond NormAmps=150
New Line.9948437 bus1=JNC300910.1.0 bus2=JNC300279.1.0 length=51.288456 units=m phases=1 phases=1 LineCode=UA1/0A_UG_SECONDARY_1_1Cond NormAmps=150
New Line.9948438 bus1=JNC300279.1.0 bus2=JNC300285.1.0 length=0.91461 units=m phases=1 phases=1 LineCode=UA1/0A_UG_SECONDARY_1_1Cond NormAmps=150
New Line.9948439 bus1=JNC300279.1.0 bus2=JNC300777.1.0 length=74.140097 units=m phases=1 phases=1 LineCode=UA1/0A_UG_SECONDARY_1_1Cond NormAmps=150
New Line.9948440 bus1=JNC300777.1.0 bus2=JNC300782.1.0 length=0.914444 units=m phases=1 phases=1 LineCode=UA1/0A_UG_SECONDARY_1_1Cond NormAmps=150
New Line.9948441 bus1=JNC300777.1.0 bus2=JNC300408.1.0 length=53.413546 units=m phases=1 phases=1 LineCode=UA1/0A_UG_SECONDARY_1_1Cond NormAmps=150
New Line.9948443 bus1=JNC300408.1.0 bus2=JNC300791.1.0 length=54.455695 units=m phases=1 phases=1 LineCode=UA1/0A_UG_SECONDARY_1_1Cond NormAmps=150
New Line.9948444 bus1=JNC300791.1.0 bus2=JNC300786.1.0 length=0.914471 units=m phases=1 phases=1 LineCode=UA1/0A_UG_SECONDARY_1_1Cond NormAmps=150
New Line.9948445 bus1=JNC300791.1.0 bus2=JNC300538.1.0 length=53.107902 units=m phases=1 phases=1 LineCode=UA1/0A_UG_SECONDARY_1_1Cond NormAmps=150
New Line.9948446 bus1=JNC300538.1.0 bus2=JNC300544.1.0 length=0.914583 units=m phases=1 phases=1 LineCode=UA1/0A_UG_SECONDARY_1_1Cond NormAmps=150
New Line.9948447 bus1=JNC300538.1.0 bus2=JNC301142.1.0 length=61.297549 units=m phases=1 phases=1 LineCode=UA1/0A_UG_SECONDARY_1_1Cond NormAmps=150
New Line.9948448 bus1=JNC301142.1.0 bus2=JNC301138.1.0 length=0.914322 units=m phases=1 phases=1 LineCode=UA1/0A_UG_SECONDARY_1_1Cond NormAmps=150
New Line.9948467 bus1=JNC301142.1.0 bus2=JNC300865.1.0 length=44.027967 units=m phases=1 phases=1 LineCode=UA1/0A_UG_SECONDARY_1_1Cond NormAmps=150
New Line.9948468 bus1=JNC300865.1.0 bus2=JNC300875.1.0 length=0.91451 units=m phases=1 phases=1 LineCode=UA1/0A_UG_SECONDARY_1_1Cond NormAmps=150
New Line.9948469 bus1=JNC300865.1.0 bus2=JNC301570.1.0 length=77.662379 units=m phases=1 phases=1 LineCode=UA1/0A_UG_SECONDARY_1_1Cond NormAmps=150
New Line.9948471 bus1=JNC301570.1.0 bus2=JNC301096.1.0 length=48.232381 units=m phases=1 phases=1 LineCode=UA1/0A_UG_SECONDARY_1_1Cond NormAmps=150
New Line.9948474 bus1=JNC301096.1.0 bus2=JNC301097.1.0 length=0.914579 units=m phases=1 phases=1 LineCode=UA1/0A_UG_SECONDARY_1_1Cond NormAmps=150
New Line.9948472 bus1=JNC301096.1.0 bus2=JNC301617.1.0 length=63.985175 units=m phases=1 phases=1 LineCode=UA1/0A_UG_SECONDARY_1_1Cond NormAmps=150
New Line.9948473 bus1=JNC301617.1.0 bus2=JNC301618.1.0 length=0.914401 units=m phases=1 phases=1 LineCode=UA1/0A_UG_SECONDARY_1_1Cond NormAmps=150
New Line.9948470 bus1=JNC301570.1.0 bus2=JNC301568.1.0 length=0.914394 units=m phases=1 phases=1 LineCode=UA1/0A_UG_SECONDARY_1_1Cond NormAmps=150
New Line.9948442 bus1=JNC300408.1.0 bus2=JNC300409.1.0 length=0.914252 units=m phases=1 phases=1 LineCode=UA1/0A_UG_SECONDARY_1_1Cond NormAmps=150
New Line.9948436 bus1=JNC300910.1.0 bus2=JNC300915.1.0 length=0.914287 units=m phases=1 phases=1 LineCode=UA1/0A_UG_SECONDARY_1_1Cond NormAmps=150
New Line.9948434 bus1=JNC300596.1.0 bus2=JNC300576.1.0 length=0.914282 units=m phases=1 phases=1 LineCode=UA1/0A_UG_SECONDARY_1_1Cond NormAmps=150
Edit Line.5406120 bus1=JNC300734.1.0 bus2=CSW76099.1.0 length=0.609521 units=m phases=1 phases=1 LineCode=BUSWORK_1_1Cond NormAmps=640
New Line.19687840 bus1=CSW76099.1.0 bus2=FLT12822.1.0 length=0.246313 units=m phases=1 phases=1 LineCode=UA750Z_UG_PRIMARY_1_1Cond NormAmps=485
New Line.8683947 bus1=FLT12822.1.0 bus2=JNC300714.1.0 length=0.299257 units=m phases=1 phases=1 LineCode=UA750Z_UG_PRIMARY_1_1Cond NormAmps=485
...