documentation/PowerGridDataSets/transformerscodes.dss
New XfmrCode.4221403 Phases=1 Windings=2 Wdg=1 kV=7.200000 kVA=75.000000 %R=0.42297077766180946 Wdg=2 kV=0.240000 kVA=75.000000 %R=0.42297077766180946 XHL=1.7754325283587755 %NoLoadLoss=0.22266666666666668
New XfmrCode.4221451 Phases=1 Windings=2 Wdg=1 kV=7.200000 kVA=25.000000 %R=0.4441097622042046 Wdg=2 kV=0.240000 kVA=25.000000 %R=0.4441097622042046 XHL=1.370709252262301 %NoLoadLoss=0.22
New XfmrCode.4221452 Phases=1 Windings=2 Wdg=1 kV=7.200000 kVA=50.000000 %R=0.46956925316692405 Wdg=2 kV=0.240000 kVA=50.000000 %R=0.46956925316692405 XHL=1.971031027245759 %NoLoadLoss=0.22400000000000003
New XfmrCode.4221453 Phases=1 Windings=2 Wdg=1 kV=7.200000 kVA=75.000000 %R=0.42942287427021003 Wdg=2 kV=0.240000 kVA=75.000000 %R=0.42942287427021003 XHL=1.8025153974354347 %NoLoadLoss=0.20933333333333334
New XfmrCode.4221454 Phases=1 Windings=2 Wdg=1 kV=7.200000 kVA=100.000000 %R=0.4874917437458143 Wdg=2 kV=0.240000 kVA=100.000000 %R=0.4874917437458143 XHL=2.0462612191253684 %NoLoadLoss=0.20399999999999996
New XfmrCode.4221555 Phases=1 Windings=2 Wdg=1 kV=7.200000 kVA=167.000000 %R=0.506205777653138 Wdg=2 kV=0.240000 kVA=167.000000 %R=0.506205777653138 XHL=2.5747751915704744 %NoLoadLoss=0.1437125748502994
New XfmrCode.4222017 Phases=3 Windings=2 Wdg=1 kV=12.470000 kVA=500.000000 %R=0.5059303596713489 Wdg=2 kV=0.208000 kVA=500.000000 %R=0.5059303596713489 XHL=2.249573810546283 %NoLoadLoss=0.161
New XfmrCode.4222213 Phases=3 Windings=2 Wdg=1 kV=12.470000 kVA=112.000000 %R=0.496126542775419 Wdg=2 kV=0.480000 kVA=112.000000 %R=0.496126542775419 XHL=1.7365004503929284 %NoLoadLoss=0.24464285714285716
